%nprocshared=1
%mem=1GB
#p opt=(calcfc,cartesian,maxcycles=5000) iop(1/152=5000) pm6

Title

0 1
C -5.0710522388059704 1.0783507462686561 0.47044029850746183
C -3.8153522388059704 0.1782507462686569 0.19534029850746193
C -4.11845223880597 -1.3219492537313435 0.5608402985074619
C -2.96945223880597 -2.3874492537313436 0.7034402985074619
C -2.52015223880597 0.7359507462686565 0.7384402985074618
C -2.20305223880597 0.7852507462686571 2.097440298507462
C -1.5755522388059702 1.205650746268656 -0.18965970149253808
C -0.9533522388059701 1.2695507462686564 2.508640298507462
H -2.91125223880597 0.4298507462686567 2.840840298507462
C -0.32655223880597006 1.6562507462686575 0.21554029850746192
H -1.7850522388059702 1.178550746268657 -1.2573597014925382
C 0.004447761194029898 1.6956507462686563 1.569740298507462
H -0.7158522388059702 1.2676507462686573 3.5705402985074617
H 0.3943477611940298 1.9193507462686572 -0.5551597014925382
C -1.76045223880597 -2.1592492537313435 -0.1734597014925381
C -0.5287522388059701 -1.936549253731343 0.464840298507462
C -1.8068522388059702 -2.121249253731343 -1.5681597014925381
C 0.6114477611940299 -1.614449253731343 -0.2582597014925381
H -0.4544522388059702 -1.954049253731343 1.5506402985074619
C -0.6479522388059701 -1.8270492537313432 -2.2998597014925384
H -2.74345223880597 -2.290549253731343 -2.092259701492538
C 0.5698477611940298 -1.5506492537313434 -1.6506597014925382
H 1.5072477611940298 -1.351949253731343 0.2991402985074618
H -0.7173522388059701 -1.7640492537313435 -3.3840597014925375
C 1.7791477611940298 -1.082849253731343 -2.4255597014925376
H 1.4739477611940297 -0.9102492537313429 -3.464259701492538
H 2.1252477611940295 -0.1337492537313434 -2.0010597014925384
C 1.3965477611940298 2.0964507462686566 1.997440298507462
H 1.51704776119403 1.8448507462686567 3.057640298507462
H 2.1256477611940294 1.5207507462686571 1.4165402985074618
C 3.94864776119403 -1.4275492537313434 -3.522959701492538
H 4.81734776119403 -2.087049253731343 -3.615159701492538
H 3.4305477611940303 -1.3641492537313429 -4.484459701492538
H 4.26984776119403 -0.441449253731343 -3.176459701492538
C 2.60904776119403 -3.4296492537313434 -2.8992597014925376
H 1.9825477611940296 -3.869549253731343 -2.119359701492538
H 2.06294776119403 -3.373349253731343 -3.845759701492538
H 3.5215477611940305 -4.019849253731343 -3.0234597014925377
C 3.7281477611940304 -2.060049253731343 -1.156659701492538
H 3.9048477611940298 -1.032549253731343 -0.8295597014925382
H 3.12924776119403 -2.623249253731343 -0.4404597014925382
H 4.68244776119403 -2.5769492537313434 -1.3005597014925383
C 3.1110477611940297 3.755250746268656 2.588740298507462
H 3.40124776119403 4.809350746268656 2.534540298507462
H 2.9823477611940303 3.461750746268656 3.634840298507462
H 3.86514776119403 3.1392507462686563 2.091540298507462
C 1.99744776119403 3.9574507462686572 0.40494029850746194
H 2.67914776119403 3.230350746268657 -0.04295970149253803
H 1.03214776119403 3.981150746268657 -0.10175970149253821
H 2.4399477611940297 4.958250746268657 0.368240298507462
C 0.7418477611940297 4.4992507462686575 2.475440298507462
H -0.18475223880597014 4.424250746268656 1.901240298507462
H 0.57844776119403 4.189650746268656 3.511940298507462
H 1.1210477611940297 5.524350746268658 2.4432402985074617
N 3.00114776119403 -2.025349253731343 -2.490159701492538
N 1.7831477611940298 3.586450746268657 1.862540298507462
C -3.55075223880597 -3.8435492537313434 0.6444402985074619
H -2.62515223880597 -2.2736492537313433 1.7424402985074618
H -4.67195223880597 -1.3478492537313436 1.5102402985074619
H -4.83415223880597 -1.6757492537313432 -0.1945597014925382
H -3.7169522388059697 0.17335074626865676 -0.900559701492538
H -3.9132522388059705 -4.043149253731343 -0.34225970149253815
H -4.35435223880597 -3.9354492537313432 1.3449402985074619
H -2.78115223880597 -4.545049253731343 0.8904402985074619
H -5.24235223880597 1.138950746268657 1.5249402985074618
H -5.92805223880597 0.6501507462686567 -0.006059701492538094
H -4.89895223880597 2.059650746268657 0.08004029850746197
O -5.036108891186452 3.150951882212493 -9.721322169146026
H -4.79514749574702 3.119356343081875 -10.659355582578046
H -5.604873226211744 3.932398098933235 -9.651961619291832
O 1.4416655318044587 -0.6369181017082421 -7.503429790001615
H 2.3778643380986138 -0.7035418523996536 -7.262472474617314
H 1.4490567578151543 -0.14227629714342066 -8.336638526906668
O -12.090663551288205 -7.320575908348454 11.96765375262167
H -11.683649826390662 -7.150669785593778 11.104844912787781
H -11.33577615204125 -7.421328550000948 12.56678300742251
O 3.15799253611366 6.643004312564473 -3.7791593883775456
H 2.548162392176892 7.320219433280055 -4.108483290820477
H 3.4325164479983643 6.977018112616049 -2.911960825487463
O -1.7867310416338482 0.3550558572970999 9.14951576777304
H -1.0855129534181234 0.9407839897775434 8.826741691242633
H -1.7920003336775188 -0.3761998662243203 8.51374910800035
O -0.1768863484249057 0.420045167839736 11.856027007515513
H -0.8517277720422975 0.53957425127881 12.541059275428687
H -0.5486669484915053 -0.26294136143653535 11.27786567143252
O -3.717462235783964 -8.357337995986647 -4.7806084219946605
H -3.8159595374095745 -8.600962467823011 -3.84791728598289
H -3.309625387116723 -9.13798327996065 -5.184618310213157
O 2.9880361440499974 2.1396786773706054 -3.528668766290064
H 3.1665941634190324 1.4726583864488116 -2.8488391390174552
H 3.842411756546455 2.258470421190424 -3.9701353886654696
O -3.3405579494693143 0.220329428435077 5.715109762209226
H -3.3059978117918516 0.2726175853781446 6.682083858256899
H -2.647910906885742 0.8316612119562936 5.4227478817306
O 2.3971370922193618 -3.0058118577032737 2.424698125963543
H 2.347067772342533 -3.119984823541277 1.4637480991781606
H 1.8078268238775594 -3.6916846444909956 2.7729133931058043
C -6.811706018275758 -8.32363172846517 8.866468843208198
O -7.351708511895705 -8.732219820938589 9.85352068322126
O -6.271703524655811 -7.9150436359917515 7.879417003195135
C 7.292723637937708 -9.364488357779877 7.3083657644274655
O 7.773701494835532 -8.894466602098131 6.2887995091209135
O 7.893827841584093 -9.508386718916785 8.379159144179487
O 6.1304307982342365 -9.768985160704318 7.427134765424984


