%nprocshared=1
%mem=1GB
#p opt=(calcfc,cartesian,maxcycles=5000) iop(1/152=5000) pm6

Title

0 1
C -5.0710522388059704 1.0783507462686561 0.47044029850746183
C -3.8153522388059704 0.1782507462686569 0.19534029850746193
C -4.11845223880597 -1.3219492537313435 0.5608402985074619
C -2.96945223880597 -2.3874492537313436 0.7034402985074619
C -2.52015223880597 0.7359507462686565 0.7384402985074618
C -2.20305223880597 0.7852507462686571 2.097440298507462
C -1.5755522388059702 1.205650746268656 -0.18965970149253808
C -0.9533522388059701 1.2695507462686564 2.508640298507462
H -2.91125223880597 0.4298507462686567 2.840840298507462
C -0.32655223880597006 1.6562507462686575 0.21554029850746192
H -1.7850522388059702 1.178550746268657 -1.2573597014925382
C 0.004447761194029898 1.6956507462686563 1.569740298507462
H -0.7158522388059702 1.2676507462686573 3.5705402985074617
H 0.3943477611940298 1.9193507462686572 -0.5551597014925382
C -1.76045223880597 -2.1592492537313435 -0.1734597014925381
C -0.5287522388059701 -1.936549253731343 0.464840298507462
C -1.8068522388059702 -2.121249253731343 -1.5681597014925381
C 0.6114477611940299 -1.614449253731343 -0.2582597014925381
H -0.4544522388059702 -1.954049253731343 1.5506402985074619
C -0.6479522388059701 -1.8270492537313432 -2.2998597014925384
H -2.74345223880597 -2.290549253731343 -2.092259701492538
C 0.5698477611940298 -1.5506492537313434 -1.6506597014925382
H 1.5072477611940298 -1.351949253731343 0.2991402985074618
H -0.7173522388059701 -1.7640492537313435 -3.3840597014925375
C 1.7791477611940298 -1.082849253731343 -2.4255597014925376
H 1.4739477611940297 -0.9102492537313429 -3.464259701492538
H 2.1252477611940295 -0.1337492537313434 -2.0010597014925384
C 1.3965477611940298 2.0964507462686566 1.997440298507462
H 1.51704776119403 1.8448507462686567 3.057640298507462
H 2.1256477611940294 1.5207507462686571 1.4165402985074618
C 3.94864776119403 -1.4275492537313434 -3.522959701492538
H 4.81734776119403 -2.087049253731343 -3.615159701492538
H 3.4305477611940303 -1.3641492537313429 -4.484459701492538
H 4.26984776119403 -0.441449253731343 -3.176459701492538
C 2.60904776119403 -3.4296492537313434 -2.8992597014925376
H 1.9825477611940296 -3.869549253731343 -2.119359701492538
H 2.06294776119403 -3.373349253731343 -3.845759701492538
H 3.5215477611940305 -4.019849253731343 -3.0234597014925377
C 3.7281477611940304 -2.060049253731343 -1.156659701492538
H 3.9048477611940298 -1.032549253731343 -0.8295597014925382
H 3.12924776119403 -2.623249253731343 -0.4404597014925382
H 4.68244776119403 -2.5769492537313434 -1.3005597014925383
C 3.1110477611940297 3.755250746268656 2.588740298507462
H 3.40124776119403 4.809350746268656 2.534540298507462
H 2.9823477611940303 3.461750746268656 3.634840298507462
H 3.86514776119403 3.1392507462686563 2.091540298507462
C 1.99744776119403 3.9574507462686572 0.40494029850746194
H 2.67914776119403 3.230350746268657 -0.04295970149253803
H 1.03214776119403 3.981150746268657 -0.10175970149253821
H 2.4399477611940297 4.958250746268657 0.368240298507462
C 0.7418477611940297 4.4992507462686575 2.475440298507462
H -0.18475223880597014 4.424250746268656 1.901240298507462
H 0.57844776119403 4.189650746268656 3.511940298507462
H 1.1210477611940297 5.524350746268658 2.4432402985074617
N 3.00114776119403 -2.025349253731343 -2.490159701492538
N 1.7831477611940298 3.586450746268657 1.862540298507462
C -3.55075223880597 -3.8435492537313434 0.6444402985074619
H -2.62515223880597 -2.2736492537313433 1.7424402985074618
H -4.67195223880597 -1.3478492537313436 1.5102402985074619
H -4.83415223880597 -1.6757492537313432 -0.1945597014925382
H -3.7169522388059697 0.17335074626865676 -0.900559701492538
H -3.9132522388059705 -4.043149253731343 -0.34225970149253815
H -4.35435223880597 -3.9354492537313432 1.3449402985074619
H -2.78115223880597 -4.545049253731343 0.8904402985074619
H -5.24235223880597 1.138950746268657 1.5249402985074618
H -5.92805223880597 0.6501507462686567 -0.006059701492538094
H -4.89895223880597 2.059650746268657 0.08004029850746197
O 1.8854397831903658 -9.725712684883057 2.3216464922848514
H 1.6760059370975093 -10.352429090560799 1.6128931022646495
H 1.0296456733790267 -9.329319155064983 2.5440213007290295
O 7.966519929071217 6.2441991786342 9.082756929397451
H 8.926009689717427 6.281710355660421 9.212909408102957
H 7.863414771330998 5.797768541044932 8.228923832961735
O 11.516850526532187 2.041607600245933 11.689543787760197
H 10.84757659294936 2.0702568129091294 12.389700185531687
H 11.354605156585407 2.8481257694382034 11.177521496259542
O -15.190851006934238 -0.7971226852512728 -15.122341244054965
H -14.977193541405065 -0.5112690057611669 -14.22144973102711
H -14.36545160685343 -0.6638206074077986 -15.612145624077085
O -8.457989216854124 1.897861951506654 9.784981918653411
H -8.125482915247161 1.2299372291218489 9.166691144406503
H -8.681280639162932 1.390525552083742 10.579785455915234
O 6.108779208680911 9.442330111932813 6.124511383107286
H 6.7883235412618825 9.217298500240306 6.777617523559323
H 5.601931230033191 10.150909806894996 6.548754104586422
O 1.3661985132845025 3.035810697188494 -3.342721657386362
H 0.9370124801336648 2.446922968142783 -2.7039901422505936
H 1.9375700949676293 2.446256905974775 -3.8574281632811793
O 5.856204180187427 -1.5203956582496712 14.236614027324435
H 5.712828504228827 -1.2495746456499939 15.155889150221766
H 6.761036439373975 -1.8671356965410975 14.23316832260324
O 0.04600899167366729 0.04057177899972845 -13.730968516840075
H 0.08603700127687369 -0.39201916265960857 -14.597126812154215
H -0.8752647376385497 0.3317071089801085 -13.657097821592405
O -5.1295341588380134 3.0426004932647492 -7.0946174567823865
H -5.907144518664641 2.7228942279968287 -6.612873345101982
H -4.915465007191219 2.317691226498999 -7.700953087906242
C 1.6194562939288395 -0.8753975630188051 9.676732199731816
O 2.003045385036745 -1.1565349554344682 10.775203607219845
O 1.2358672028209343 -0.5942601706031421 8.578260792243787
C 3.2064529089574796 5.041909646353538 -7.60337058383141
O 2.437309485717358 4.991300221791279 -8.550805319964693
O 3.5557327904823732 4.074880325032286 -6.91671978454045
O 3.754565069089063 6.068001012139385 -7.184612953004669


