%nprocshared=1
%mem=1GB
#p opt=(calcfc,cartesian,maxcycles=5000) iop(1/152=5000) pm6

Title

0 1
C -5.0710522388059704 1.0783507462686561 0.47044029850746183
C -3.8153522388059704 0.1782507462686569 0.19534029850746193
C -4.11845223880597 -1.3219492537313435 0.5608402985074619
C -2.96945223880597 -2.3874492537313436 0.7034402985074619
C -2.52015223880597 0.7359507462686565 0.7384402985074618
C -2.20305223880597 0.7852507462686571 2.097440298507462
C -1.5755522388059702 1.205650746268656 -0.18965970149253808
C -0.9533522388059701 1.2695507462686564 2.508640298507462
H -2.91125223880597 0.4298507462686567 2.840840298507462
C -0.32655223880597006 1.6562507462686575 0.21554029850746192
H -1.7850522388059702 1.178550746268657 -1.2573597014925382
C 0.004447761194029898 1.6956507462686563 1.569740298507462
H -0.7158522388059702 1.2676507462686573 3.5705402985074617
H 0.3943477611940298 1.9193507462686572 -0.5551597014925382
C -1.76045223880597 -2.1592492537313435 -0.1734597014925381
C -0.5287522388059701 -1.936549253731343 0.464840298507462
C -1.8068522388059702 -2.121249253731343 -1.5681597014925381
C 0.6114477611940299 -1.614449253731343 -0.2582597014925381
H -0.4544522388059702 -1.954049253731343 1.5506402985074619
C -0.6479522388059701 -1.8270492537313432 -2.2998597014925384
H -2.74345223880597 -2.290549253731343 -2.092259701492538
C 0.5698477611940298 -1.5506492537313434 -1.6506597014925382
H 1.5072477611940298 -1.351949253731343 0.2991402985074618
H -0.7173522388059701 -1.7640492537313435 -3.3840597014925375
C 1.7791477611940298 -1.082849253731343 -2.4255597014925376
H 1.4739477611940297 -0.9102492537313429 -3.464259701492538
H 2.1252477611940295 -0.1337492537313434 -2.0010597014925384
C 1.3965477611940298 2.0964507462686566 1.997440298507462
H 1.51704776119403 1.8448507462686567 3.057640298507462
H 2.1256477611940294 1.5207507462686571 1.4165402985074618
C 3.94864776119403 -1.4275492537313434 -3.522959701492538
H 4.81734776119403 -2.087049253731343 -3.615159701492538
H 3.4305477611940303 -1.3641492537313429 -4.484459701492538
H 4.26984776119403 -0.441449253731343 -3.176459701492538
C 2.60904776119403 -3.4296492537313434 -2.8992597014925376
H 1.9825477611940296 -3.869549253731343 -2.119359701492538
H 2.06294776119403 -3.373349253731343 -3.845759701492538
H 3.5215477611940305 -4.019849253731343 -3.0234597014925377
C 3.7281477611940304 -2.060049253731343 -1.156659701492538
H 3.9048477611940298 -1.032549253731343 -0.8295597014925382
H 3.12924776119403 -2.623249253731343 -0.4404597014925382
H 4.68244776119403 -2.5769492537313434 -1.3005597014925383
C 3.1110477611940297 3.755250746268656 2.588740298507462
H 3.40124776119403 4.809350746268656 2.534540298507462
H 2.9823477611940303 3.461750746268656 3.634840298507462
H 3.86514776119403 3.1392507462686563 2.091540298507462
C 1.99744776119403 3.9574507462686572 0.40494029850746194
H 2.67914776119403 3.230350746268657 -0.04295970149253803
H 1.03214776119403 3.981150746268657 -0.10175970149253821
H 2.4399477611940297 4.958250746268657 0.368240298507462
C 0.7418477611940297 4.4992507462686575 2.475440298507462
H -0.18475223880597014 4.424250746268656 1.901240298507462
H 0.57844776119403 4.189650746268656 3.511940298507462
H 1.1210477611940297 5.524350746268658 2.4432402985074617
N 3.00114776119403 -2.025349253731343 -2.490159701492538
N 1.7831477611940298 3.586450746268657 1.862540298507462
C -3.55075223880597 -3.8435492537313434 0.6444402985074619
H -2.62515223880597 -2.2736492537313433 1.7424402985074618
H -4.67195223880597 -1.3478492537313436 1.5102402985074619
H -4.83415223880597 -1.6757492537313432 -0.1945597014925382
H -3.7169522388059697 0.17335074626865676 -0.900559701492538
H -3.9132522388059705 -4.043149253731343 -0.34225970149253815
H -4.35435223880597 -3.9354492537313432 1.3449402985074619
H -2.78115223880597 -4.545049253731343 0.8904402985074619
H -5.24235223880597 1.138950746268657 1.5249402985074618
H -5.92805223880597 0.6501507462686567 -0.006059701492538094
H -4.89895223880597 2.059650746268657 0.08004029850746197
O -7.9581335372618796 3.097374889423018 -8.028545636076124
H -8.884138003086058 3.2933835726530565 -8.236063544392747
H -7.5182034292584525 3.104588348424133 -8.89189458660617
O -2.722888745960572 -11.28620972976682 -3.46769660134219
H -2.631980405473205 -10.925363780491068 -2.572993728081399
H -2.552381534886381 -12.23357918483886 -3.356429576270926
O -0.38292776077043433 0.10258648436558981 8.67201274557756
H -0.009449671940096216 -0.7864205717195437 8.767657548334864
H 0.3923774327105305 0.6838340873539538 8.675888991406218
O 7.829998694442404 4.648113458941867 -8.875845102509135
H 7.904904957633541 4.039590978947315 -8.125473994339304
H 8.635772192106876 4.48682067334724 -9.38933867800613
O -13.29458208625732 6.253673548331898 -13.376472703781605
H -13.409365281828988 6.044318021094604 -14.315601256286294
H -12.454023563046343 5.831543060403777 -13.143601141501131
O 4.819329764214497 7.190955653837217 4.921363014545203
H 5.639481583378414 6.9752385276487505 5.390174780493016
H 4.177397278578201 6.552583482944639 5.2668562845443505
O -3.8136387033966583 2.011620307594278 6.806169915902039
H -3.463164904642042 2.2654712651817164 5.9391663607660465
H -3.5287609818177925 2.728350581819556 7.392773991967823
O -7.91971813905263 8.911588790907677 7.770565467405898
H -7.249630089521849 8.96081658321195 7.072334855615724
H -7.871054768342791 9.777315131219455 8.203129594838506
O -4.10510530965755 0.11707586995366584 -3.764514375107424
H -3.8680495475253687 0.1599647653111627 -4.703094401101449
H -3.9296073532131506 -0.8041668670501936 -3.5206409835669024
O -10.876152933889998 6.6511853439619015 12.387226489452008
H -10.496060775742567 6.380378869517859 11.53801440662816
H -11.821370351656652 6.460170241240521 12.292151740002556
C 0.21416503305867807 -6.910800597809451 -0.27877528558094816
O -0.5147019562224151 -6.000796645186095 -0.007732898773672947
O 0.943032022339771 -7.820804550432807 -0.5498176723882232
C -4.373907539188928 -5.943553680957733 8.822785108425714
O -4.811093773282346 -6.032477439845671 7.6857995058675925
O -4.185321066229542 -4.884852329970785 9.432881867747668
O -4.052410271293009 -6.898518229044341 9.539256045054131


