%nprocshared=1
%mem=1GB
#p opt=(calcfc,cartesian,maxcycles=5000) iop(1/152=5000) pm6

Title

0 1
C -5.0710522388059704 1.0783507462686561 0.47044029850746183
C -3.8153522388059704 0.1782507462686569 0.19534029850746193
C -4.11845223880597 -1.3219492537313435 0.5608402985074619
C -2.96945223880597 -2.3874492537313436 0.7034402985074619
C -2.52015223880597 0.7359507462686565 0.7384402985074618
C -2.20305223880597 0.7852507462686571 2.097440298507462
C -1.5755522388059702 1.205650746268656 -0.18965970149253808
C -0.9533522388059701 1.2695507462686564 2.508640298507462
H -2.91125223880597 0.4298507462686567 2.840840298507462
C -0.32655223880597006 1.6562507462686575 0.21554029850746192
H -1.7850522388059702 1.178550746268657 -1.2573597014925382
C 0.004447761194029898 1.6956507462686563 1.569740298507462
H -0.7158522388059702 1.2676507462686573 3.5705402985074617
H 0.3943477611940298 1.9193507462686572 -0.5551597014925382
C -1.76045223880597 -2.1592492537313435 -0.1734597014925381
C -0.5287522388059701 -1.936549253731343 0.464840298507462
C -1.8068522388059702 -2.121249253731343 -1.5681597014925381
C 0.6114477611940299 -1.614449253731343 -0.2582597014925381
H -0.4544522388059702 -1.954049253731343 1.5506402985074619
C -0.6479522388059701 -1.8270492537313432 -2.2998597014925384
H -2.74345223880597 -2.290549253731343 -2.092259701492538
C 0.5698477611940298 -1.5506492537313434 -1.6506597014925382
H 1.5072477611940298 -1.351949253731343 0.2991402985074618
H -0.7173522388059701 -1.7640492537313435 -3.3840597014925375
C 1.7791477611940298 -1.082849253731343 -2.4255597014925376
H 1.4739477611940297 -0.9102492537313429 -3.464259701492538
H 2.1252477611940295 -0.1337492537313434 -2.0010597014925384
C 1.3965477611940298 2.0964507462686566 1.997440298507462
H 1.51704776119403 1.8448507462686567 3.057640298507462
H 2.1256477611940294 1.5207507462686571 1.4165402985074618
C 3.94864776119403 -1.4275492537313434 -3.522959701492538
H 4.81734776119403 -2.087049253731343 -3.615159701492538
H 3.4305477611940303 -1.3641492537313429 -4.484459701492538
H 4.26984776119403 -0.441449253731343 -3.176459701492538
C 2.60904776119403 -3.4296492537313434 -2.8992597014925376
H 1.9825477611940296 -3.869549253731343 -2.119359701492538
H 2.06294776119403 -3.373349253731343 -3.845759701492538
H 3.5215477611940305 -4.019849253731343 -3.0234597014925377
C 3.7281477611940304 -2.060049253731343 -1.156659701492538
H 3.9048477611940298 -1.032549253731343 -0.8295597014925382
H 3.12924776119403 -2.623249253731343 -0.4404597014925382
H 4.68244776119403 -2.5769492537313434 -1.3005597014925383
C 3.1110477611940297 3.755250746268656 2.588740298507462
H 3.40124776119403 4.809350746268656 2.534540298507462
H 2.9823477611940303 3.461750746268656 3.634840298507462
H 3.86514776119403 3.1392507462686563 2.091540298507462
C 1.99744776119403 3.9574507462686572 0.40494029850746194
H 2.67914776119403 3.230350746268657 -0.04295970149253803
H 1.03214776119403 3.981150746268657 -0.10175970149253821
H 2.4399477611940297 4.958250746268657 0.368240298507462
C 0.7418477611940297 4.4992507462686575 2.475440298507462
H -0.18475223880597014 4.424250746268656 1.901240298507462
H 0.57844776119403 4.189650746268656 3.511940298507462
H 1.1210477611940297 5.524350746268658 2.4432402985074617
N 3.00114776119403 -2.025349253731343 -2.490159701492538
N 1.7831477611940298 3.586450746268657 1.862540298507462
C -3.55075223880597 -3.8435492537313434 0.6444402985074619
H -2.62515223880597 -2.2736492537313433 1.7424402985074618
H -4.67195223880597 -1.3478492537313436 1.5102402985074619
H -4.83415223880597 -1.6757492537313432 -0.1945597014925382
H -3.7169522388059697 0.17335074626865676 -0.900559701492538
H -3.9132522388059705 -4.043149253731343 -0.34225970149253815
H -4.35435223880597 -3.9354492537313432 1.3449402985074619
H -2.78115223880597 -4.545049253731343 0.8904402985074619
H -5.24235223880597 1.138950746268657 1.5249402985074618
H -5.92805223880597 0.6501507462686567 -0.006059701492538094
H -4.89895223880597 2.059650746268657 0.08004029850746197
O 2.694229781907719 11.780381192379851 2.3543307877052757
H 2.631236529282929 11.531497560775588 3.288705522457465
H 1.7711342432947605 11.859877997395147 2.0705406735624265
O -7.670349664177364 -2.066287151995193 8.465434626063173
H -8.353150228312584 -1.3849136771603918 8.373342637767914
H -7.732688425699345 -2.3361137880773715 9.394019253101808
O 7.735563014072384 3.6137967391995987 -7.91533304976388
H 7.427182343024802 3.2643531694349246 -8.764896414189609
H 8.697963627250758 3.6618791017848284 -8.017485340301642
O 0.20158476586143503 -5.792926863571836 -0.054874221709679594
H -0.7420426102644095 -5.705835236624377 -0.2572347426654722
H 0.4683806372716921 -4.898832380993584 0.20661567010560655
O 3.0739934611009114 -0.337915615902395 4.148264022971569
H 3.171499649685314 -0.3943112449007462 3.1858299041262192
H 2.6996221832488225 -1.1965677352363273 4.3963056093693735
O 9.752146535343117 5.359047025981436 -13.067279251087658
H 10.18389772784066 5.738344992075103 -13.84746597078632
H 10.072355337307961 4.444782513358133 -13.043855579259521
O -6.985610856888367 2.9666136926498354 -13.96444441996673
H -7.398964760926491 2.702199859033881 -13.128866038539256
H -7.478562923795079 3.757657836546823 -14.229414921039364
O 5.008324693406103 6.37141365364971 4.5057985066659265
H 4.1700179745902854 6.819118510733402 4.316670076672102
H 4.862915503338625 5.957548661095261 5.369820427500013
O -4.352468139876339 7.8100080293293015 -3.9259988012809
H -3.501195091125025 7.991616966947431 -4.351815366419997
H -4.95348434554097 7.640861596207283 -4.667032504286768
O 1.3804783500406792 0.762634626295291 -7.632078823470201
H 2.234621346974687 1.1615777086134007 -7.856247319827559
H 1.0234559258484501 0.47822305065058857 -8.486834337382337
C 2.054491198102355 -0.8430014972885378 -12.952065512349794
O 2.0253307213142158 0.26210591187221965 -12.493038783159122
O 2.0836516748904943 -1.9481089064492947 -13.411092241540466
C -6.1199247386190425 -0.9806169563234882 -14.858284406110847
O -6.513677731223745 -0.9818276255961678 -16.014455939100117
O -5.776578608564987 0.02330856847907714 -14.22355734687452
O -6.0038649699608095 -1.9831440261275115 -14.144058959344102


