%nprocshared=1
%mem=1GB
#p opt=(calcfc,cartesian,maxcycles=5000) iop(1/152=5000) pm6

Title

0 1
C -5.0710522388059704 1.0783507462686561 0.47044029850746183
C -3.8153522388059704 0.1782507462686569 0.19534029850746193
C -4.11845223880597 -1.3219492537313435 0.5608402985074619
C -2.96945223880597 -2.3874492537313436 0.7034402985074619
C -2.52015223880597 0.7359507462686565 0.7384402985074618
C -2.20305223880597 0.7852507462686571 2.097440298507462
C -1.5755522388059702 1.205650746268656 -0.18965970149253808
C -0.9533522388059701 1.2695507462686564 2.508640298507462
H -2.91125223880597 0.4298507462686567 2.840840298507462
C -0.32655223880597006 1.6562507462686575 0.21554029850746192
H -1.7850522388059702 1.178550746268657 -1.2573597014925382
C 0.004447761194029898 1.6956507462686563 1.569740298507462
H -0.7158522388059702 1.2676507462686573 3.5705402985074617
H 0.3943477611940298 1.9193507462686572 -0.5551597014925382
C -1.76045223880597 -2.1592492537313435 -0.1734597014925381
C -0.5287522388059701 -1.936549253731343 0.464840298507462
C -1.8068522388059702 -2.121249253731343 -1.5681597014925381
C 0.6114477611940299 -1.614449253731343 -0.2582597014925381
H -0.4544522388059702 -1.954049253731343 1.5506402985074619
C -0.6479522388059701 -1.8270492537313432 -2.2998597014925384
H -2.74345223880597 -2.290549253731343 -2.092259701492538
C 0.5698477611940298 -1.5506492537313434 -1.6506597014925382
H 1.5072477611940298 -1.351949253731343 0.2991402985074618
H -0.7173522388059701 -1.7640492537313435 -3.3840597014925375
C 1.7791477611940298 -1.082849253731343 -2.4255597014925376
H 1.4739477611940297 -0.9102492537313429 -3.464259701492538
H 2.1252477611940295 -0.1337492537313434 -2.0010597014925384
C 1.3965477611940298 2.0964507462686566 1.997440298507462
H 1.51704776119403 1.8448507462686567 3.057640298507462
H 2.1256477611940294 1.5207507462686571 1.4165402985074618
C 3.94864776119403 -1.4275492537313434 -3.522959701492538
H 4.81734776119403 -2.087049253731343 -3.615159701492538
H 3.4305477611940303 -1.3641492537313429 -4.484459701492538
H 4.26984776119403 -0.441449253731343 -3.176459701492538
C 2.60904776119403 -3.4296492537313434 -2.8992597014925376
H 1.9825477611940296 -3.869549253731343 -2.119359701492538
H 2.06294776119403 -3.373349253731343 -3.845759701492538
H 3.5215477611940305 -4.019849253731343 -3.0234597014925377
C 3.7281477611940304 -2.060049253731343 -1.156659701492538
H 3.9048477611940298 -1.032549253731343 -0.8295597014925382
H 3.12924776119403 -2.623249253731343 -0.4404597014925382
H 4.68244776119403 -2.5769492537313434 -1.3005597014925383
C 3.1110477611940297 3.755250746268656 2.588740298507462
H 3.40124776119403 4.809350746268656 2.534540298507462
H 2.9823477611940303 3.461750746268656 3.634840298507462
H 3.86514776119403 3.1392507462686563 2.091540298507462
C 1.99744776119403 3.9574507462686572 0.40494029850746194
H 2.67914776119403 3.230350746268657 -0.04295970149253803
H 1.03214776119403 3.981150746268657 -0.10175970149253821
H 2.4399477611940297 4.958250746268657 0.368240298507462
C 0.7418477611940297 4.4992507462686575 2.475440298507462
H -0.18475223880597014 4.424250746268656 1.901240298507462
H 0.57844776119403 4.189650746268656 3.511940298507462
H 1.1210477611940297 5.524350746268658 2.4432402985074617
N 3.00114776119403 -2.025349253731343 -2.490159701492538
N 1.7831477611940298 3.586450746268657 1.862540298507462
C -3.55075223880597 -3.8435492537313434 0.6444402985074619
H -2.62515223880597 -2.2736492537313433 1.7424402985074618
H -4.67195223880597 -1.3478492537313436 1.5102402985074619
H -4.83415223880597 -1.6757492537313432 -0.1945597014925382
H -3.7169522388059697 0.17335074626865676 -0.900559701492538
H -3.9132522388059705 -4.043149253731343 -0.34225970149253815
H -4.35435223880597 -3.9354492537313432 1.3449402985074619
H -2.78115223880597 -4.545049253731343 0.8904402985074619
H -5.24235223880597 1.138950746268657 1.5249402985074618
H -5.92805223880597 0.6501507462686567 -0.006059701492538094
H -4.89895223880597 2.059650746268657 0.08004029850746197
O 1.7407922207878286 0.14416612319651062 -7.07726059162963
H 0.8082003424775352 -0.059149967673652826 -6.9102207382923035
H 2.2033987011116816 -0.6768198824909952 -6.85156352224757
O -5.197670227271683 -10.859213166453292 -5.646782082336516
H -4.913511756889982 -9.998021243518835 -5.305358895539274
H -6.148569817701257 -10.882158664140153 -5.461780954348682
O 8.545891656760796 1.0761297978828892 -8.92940996021382
H 9.409283746393372 0.6533485311766587 -9.050972524279285
H 7.920234394856531 0.3362014486408909 -8.933989579681525
O 1.5416449529828384 -4.448703825563277 1.5000192572882305
H 1.107707871134441 -3.944943666360388 2.2049246891702508
H 2.4572229870439943 -4.536789679009704 1.8048465694951956
O -2.3486190604463566 5.538454049693529 4.127932117881194
H -1.9804993360054997 5.286079068899079 3.267837882086889
H -1.5778486805298717 5.836085072390788 4.634183774739303
O 5.643841354813588 6.845901355730122 7.447133241591934
H 5.470069727175224 6.942352421030373 6.498730389249976
H 5.129251559715658 7.559566477361932 7.853139868689722
O 9.22688846095652 4.774581797365303 -10.595526057084143
H 8.97473671344321 4.960627390588635 -9.678588823480792
H 8.910901950559305 5.547823809323804 -11.086658687327095
O -3.6254464545051635 -0.21555293502424736 -9.619102891258288
H -3.722881567505478 -0.8757657726773111 -10.321664464825123
H -3.0312000198107483 0.44737917188141607 -10.001665488471598
O -4.305859008741707 4.201295155335645 -8.417402685026747
H -3.9925176372367113 3.9359568954061563 -9.295115707387108
H -5.212569710611628 4.504885518577667 -8.574471264829107
O 5.117245698701282 -4.865320786098238 5.468875944524071
H 4.68848187332443 -5.725533543579641 5.592013878624205
H 5.91096955459048 -4.9180756236238485 6.022212471431548
C -4.696083865075532 -7.173733067778366 6.024744434854247
O -5.8047187160092895 -6.777578938466653 6.241098150848134
O -3.5874490141417743 -7.56988719709008 5.80839071886036
C 5.870823306223584 1.50772269341613 -7.710080739527376
O 5.906988627552761 2.0528292237998533 -6.617685921402456
O 5.618613627047368 2.072895475613382 -8.780408478163187
O 6.080840690699821 0.3065397451681826 -7.914288005451313


