%nprocshared=1
%mem=1GB
#p opt=(calcfc,cartesian,maxcycles=5000) iop(1/152=5000) pm6

Title

0 1
C -5.0710522388059704 1.0783507462686561 0.47044029850746183
C -3.8153522388059704 0.1782507462686569 0.19534029850746193
C -4.11845223880597 -1.3219492537313435 0.5608402985074619
C -2.96945223880597 -2.3874492537313436 0.7034402985074619
C -2.52015223880597 0.7359507462686565 0.7384402985074618
C -2.20305223880597 0.7852507462686571 2.097440298507462
C -1.5755522388059702 1.205650746268656 -0.18965970149253808
C -0.9533522388059701 1.2695507462686564 2.508640298507462
H -2.91125223880597 0.4298507462686567 2.840840298507462
C -0.32655223880597006 1.6562507462686575 0.21554029850746192
H -1.7850522388059702 1.178550746268657 -1.2573597014925382
C 0.004447761194029898 1.6956507462686563 1.569740298507462
H -0.7158522388059702 1.2676507462686573 3.5705402985074617
H 0.3943477611940298 1.9193507462686572 -0.5551597014925382
C -1.76045223880597 -2.1592492537313435 -0.1734597014925381
C -0.5287522388059701 -1.936549253731343 0.464840298507462
C -1.8068522388059702 -2.121249253731343 -1.5681597014925381
C 0.6114477611940299 -1.614449253731343 -0.2582597014925381
H -0.4544522388059702 -1.954049253731343 1.5506402985074619
C -0.6479522388059701 -1.8270492537313432 -2.2998597014925384
H -2.74345223880597 -2.290549253731343 -2.092259701492538
C 0.5698477611940298 -1.5506492537313434 -1.6506597014925382
H 1.5072477611940298 -1.351949253731343 0.2991402985074618
H -0.7173522388059701 -1.7640492537313435 -3.3840597014925375
C 1.7791477611940298 -1.082849253731343 -2.4255597014925376
H 1.4739477611940297 -0.9102492537313429 -3.464259701492538
H 2.1252477611940295 -0.1337492537313434 -2.0010597014925384
C 1.3965477611940298 2.0964507462686566 1.997440298507462
H 1.51704776119403 1.8448507462686567 3.057640298507462
H 2.1256477611940294 1.5207507462686571 1.4165402985074618
C 3.94864776119403 -1.4275492537313434 -3.522959701492538
H 4.81734776119403 -2.087049253731343 -3.615159701492538
H 3.4305477611940303 -1.3641492537313429 -4.484459701492538
H 4.26984776119403 -0.441449253731343 -3.176459701492538
C 2.60904776119403 -3.4296492537313434 -2.8992597014925376
H 1.9825477611940296 -3.869549253731343 -2.119359701492538
H 2.06294776119403 -3.373349253731343 -3.845759701492538
H 3.5215477611940305 -4.019849253731343 -3.0234597014925377
C 3.7281477611940304 -2.060049253731343 -1.156659701492538
H 3.9048477611940298 -1.032549253731343 -0.8295597014925382
H 3.12924776119403 -2.623249253731343 -0.4404597014925382
H 4.68244776119403 -2.5769492537313434 -1.3005597014925383
C 3.1110477611940297 3.755250746268656 2.588740298507462
H 3.40124776119403 4.809350746268656 2.534540298507462
H 2.9823477611940303 3.461750746268656 3.634840298507462
H 3.86514776119403 3.1392507462686563 2.091540298507462
C 1.99744776119403 3.9574507462686572 0.40494029850746194
H 2.67914776119403 3.230350746268657 -0.04295970149253803
H 1.03214776119403 3.981150746268657 -0.10175970149253821
H 2.4399477611940297 4.958250746268657 0.368240298507462
C 0.7418477611940297 4.4992507462686575 2.475440298507462
H -0.18475223880597014 4.424250746268656 1.901240298507462
H 0.57844776119403 4.189650746268656 3.511940298507462
H 1.1210477611940297 5.524350746268658 2.4432402985074617
N 3.00114776119403 -2.025349253731343 -2.490159701492538
N 1.7831477611940298 3.586450746268657 1.862540298507462
C -3.55075223880597 -3.8435492537313434 0.6444402985074619
H -2.62515223880597 -2.2736492537313433 1.7424402985074618
H -4.67195223880597 -1.3478492537313436 1.5102402985074619
H -4.83415223880597 -1.6757492537313432 -0.1945597014925382
H -3.7169522388059697 0.17335074626865676 -0.900559701492538
H -3.9132522388059705 -4.043149253731343 -0.34225970149253815
H -4.35435223880597 -3.9354492537313432 1.3449402985074619
H -2.78115223880597 -4.545049253731343 0.8904402985074619
H -5.24235223880597 1.138950746268657 1.5249402985074618
H -5.92805223880597 0.6501507462686567 -0.006059701492538094
H -4.89895223880597 2.059650746268657 0.08004029850746197
O -3.841004918386216 7.845772755025926 4.888080341358093
H -4.343109695810591 7.853170200309288 4.059344299429845
H -3.9211241939409622 6.932587801140309 5.202144166052221
O 6.831787492451549 5.781645375451346 7.682202942091235
H 6.81606537142599 5.669580752580833 6.719829993535766
H 6.077243045098777 6.362234782466312 7.862592968786474
O -3.842431577394811 -4.624004195187376 10.419071330169915
H -3.8618894458298367 -4.505499070221414 9.45753855193884
H -4.660100034247054 -4.202421299392128 10.723452835754214
O -7.658854548249347 -4.607263490768686 8.97172036289063
H -7.880977221094879 -3.7133124705771463 9.272520044749609
H -7.834792329494611 -4.58414895569132 8.019106296388015
O -6.875915877820165 -10.43633924904321 -8.040248903194389
H -7.803970321142108 -10.287395973773478 -7.804668326995236
H -6.6042505818472295 -11.170228028449012 -7.468788343989994
O -1.534719175786877 -10.389274904333138 -1.5306801775131813
H -2.2360414522889656 -10.479277725536795 -2.193261428045757
H -1.2505229645228046 -11.30079458083618 -1.3653733804631725
O -6.0859252046180465 3.5829309061376144 7.188038557625427
H -6.614540855344711 3.436677985596719 6.389200067103042
H -6.266752224659064 2.8033094017191806 7.734347850033513
O 5.173063418907101 -3.6832219609187544 8.585878276180656
H 5.771951655651592 -3.967723824560275 7.879224947897559
H 5.518003700214118 -2.8172281582022753 8.85051553789655
O 0.14564197910297805 -0.41340199320690185 5.689232352209764
H -0.7130804132661983 -0.29102246195542536 5.257275803382885
H 0.4186000644553 0.4856121745412887 5.926359647409667
O 3.5092064535306178 4.856114758313331 6.352238083124215
H 3.6056046607240146 4.98642594535476 7.307588143092682
H 3.019479642513707 5.638591833376231 6.057519196942458
C -3.888096746212107 9.12794479674503 -5.486389493781119
O -3.8599187967746365 9.401658835129588 -6.651337941420205
O -3.916274695649578 8.854230758360472 -4.321441046142033
C 3.8286955798151023 -12.961169257531076 4.304096188326409
O 3.6270083358929166 -12.71609340943409 5.4835179037948905
O 3.574674934500039 -12.198897662058071 3.3643903883077226
O 4.318038082349942 -14.009393433618271 3.8677266473645515


