%nprocshared=1
%mem=1GB
#p opt=(calcfc,cartesian,maxcycles=5000) iop(1/152=5000) pm6

Title

0 1
C -5.0710522388059704 1.0783507462686561 0.47044029850746183
C -3.8153522388059704 0.1782507462686569 0.19534029850746193
C -4.11845223880597 -1.3219492537313435 0.5608402985074619
C -2.96945223880597 -2.3874492537313436 0.7034402985074619
C -2.52015223880597 0.7359507462686565 0.7384402985074618
C -2.20305223880597 0.7852507462686571 2.097440298507462
C -1.5755522388059702 1.205650746268656 -0.18965970149253808
C -0.9533522388059701 1.2695507462686564 2.508640298507462
H -2.91125223880597 0.4298507462686567 2.840840298507462
C -0.32655223880597006 1.6562507462686575 0.21554029850746192
H -1.7850522388059702 1.178550746268657 -1.2573597014925382
C 0.004447761194029898 1.6956507462686563 1.569740298507462
H -0.7158522388059702 1.2676507462686573 3.5705402985074617
H 0.3943477611940298 1.9193507462686572 -0.5551597014925382
C -1.76045223880597 -2.1592492537313435 -0.1734597014925381
C -0.5287522388059701 -1.936549253731343 0.464840298507462
C -1.8068522388059702 -2.121249253731343 -1.5681597014925381
C 0.6114477611940299 -1.614449253731343 -0.2582597014925381
H -0.4544522388059702 -1.954049253731343 1.5506402985074619
C -0.6479522388059701 -1.8270492537313432 -2.2998597014925384
H -2.74345223880597 -2.290549253731343 -2.092259701492538
C 0.5698477611940298 -1.5506492537313434 -1.6506597014925382
H 1.5072477611940298 -1.351949253731343 0.2991402985074618
H -0.7173522388059701 -1.7640492537313435 -3.3840597014925375
C 1.7791477611940298 -1.082849253731343 -2.4255597014925376
H 1.4739477611940297 -0.9102492537313429 -3.464259701492538
H 2.1252477611940295 -0.1337492537313434 -2.0010597014925384
C 1.3965477611940298 2.0964507462686566 1.997440298507462
H 1.51704776119403 1.8448507462686567 3.057640298507462
H 2.1256477611940294 1.5207507462686571 1.4165402985074618
C 3.94864776119403 -1.4275492537313434 -3.522959701492538
H 4.81734776119403 -2.087049253731343 -3.615159701492538
H 3.4305477611940303 -1.3641492537313429 -4.484459701492538
H 4.26984776119403 -0.441449253731343 -3.176459701492538
C 2.60904776119403 -3.4296492537313434 -2.8992597014925376
H 1.9825477611940296 -3.869549253731343 -2.119359701492538
H 2.06294776119403 -3.373349253731343 -3.845759701492538
H 3.5215477611940305 -4.019849253731343 -3.0234597014925377
C 3.7281477611940304 -2.060049253731343 -1.156659701492538
H 3.9048477611940298 -1.032549253731343 -0.8295597014925382
H 3.12924776119403 -2.623249253731343 -0.4404597014925382
H 4.68244776119403 -2.5769492537313434 -1.3005597014925383
C 3.1110477611940297 3.755250746268656 2.588740298507462
H 3.40124776119403 4.809350746268656 2.534540298507462
H 2.9823477611940303 3.461750746268656 3.634840298507462
H 3.86514776119403 3.1392507462686563 2.091540298507462
C 1.99744776119403 3.9574507462686572 0.40494029850746194
H 2.67914776119403 3.230350746268657 -0.04295970149253803
H 1.03214776119403 3.981150746268657 -0.10175970149253821
H 2.4399477611940297 4.958250746268657 0.368240298507462
C 0.7418477611940297 4.4992507462686575 2.475440298507462
H -0.18475223880597014 4.424250746268656 1.901240298507462
H 0.57844776119403 4.189650746268656 3.511940298507462
H 1.1210477611940297 5.524350746268658 2.4432402985074617
N 3.00114776119403 -2.025349253731343 -2.490159701492538
N 1.7831477611940298 3.586450746268657 1.862540298507462
C -3.55075223880597 -3.8435492537313434 0.6444402985074619
H -2.62515223880597 -2.2736492537313433 1.7424402985074618
H -4.67195223880597 -1.3478492537313436 1.5102402985074619
H -4.83415223880597 -1.6757492537313432 -0.1945597014925382
H -3.7169522388059697 0.17335074626865676 -0.900559701492538
H -3.9132522388059705 -4.043149253731343 -0.34225970149253815
H -4.35435223880597 -3.9354492537313432 1.3449402985074619
H -2.78115223880597 -4.545049253731343 0.8904402985074619
H -5.24235223880597 1.138950746268657 1.5249402985074618
H -5.92805223880597 0.6501507462686567 -0.006059701492538094
H -4.89895223880597 2.059650746268657 0.08004029850746197
O -8.91657852866394 8.896093043830357 8.736223176348972
H -8.5025528563627 8.204869755849137 9.274517209130257
H -8.798703292447417 9.702741784134929 9.2600410671774
O 1.5011904930246018 -0.9292823722048389 5.784567878529815
H 0.6577970860861914 -1.290368591714623 6.096451927677818
H 1.46305763643821 0.005590026213686317 6.036602455966633
O -3.5334243324712036 7.439367885716386 -5.582475686998488
H -3.5812149008081366 7.4423213358911395 -6.550295244359311
H -3.5307518471563313 8.378914649153026 -5.345396203622181
O 1.911927202390372 -6.211098358372693 3.5961206175728564
H 2.218722164104788 -7.106661009983253 3.389210624080725
H 2.338223906655412 -6.0072637618742 4.442102013055678
O -0.3078453842838387 0.10895094791078544 8.838733198015595
H -0.9525085985574576 -0.5004398530620023 8.448836354283625
H -0.8539120618934984 0.7696022652124442 9.290743114778413
O 5.965247429260132 2.0089747420969752 6.7007123480339645
H 6.1595325758418324 2.2413066921268627 5.780254579468215
H 6.498301012352077 2.6321460844702935 7.216922867006093
O 4.7558271514309345 -7.842374349787653 -5.116357577500348
H 5.181346590753477 -7.877970107169114 -5.986204406381773
H 5.094520174534744 -8.625978540744056 -4.657867171585062
O -2.396367405893594 4.521342322972061 1.9832173328498783
H -2.4310220551760024 5.048188673778501 2.7957438461557844
H -2.227396569856371 3.619850028258445 2.2958232244144168
O 2.1507093901406877 2.3491075754800255 -4.546108347204527
H 1.6158949115191747 3.101659154138659 -4.251817756435473
H 3.04083421002093 2.7190256840884226 -4.645105025213193
O -7.099979324861461 -0.4648386799109427 13.729207788900638
H -7.510556505367541 -0.4746648646014563 14.606873546374464
H -7.171154693556748 -1.3828245559442423 13.427217817884273
C -1.332717514300435 0.8979267833315245 11.610573475492638
O -2.1470799695256124 1.4268639914590264 10.910675283840519
O -0.5183550590752579 0.36898957520402287 12.310471667144757
C 4.588720997808267 -4.344832007599493 9.38329191709494
O 5.530092826965853 -4.6265427236487175 8.657872279690814
O 3.5700537868692086 -3.7416266271873457 9.026792483014775
O 4.5090583266591935 -4.6193602962201465 10.586178637435808


