%nprocshared=1
%mem=1GB
#p opt=(calcfc,cartesian,maxcycles=5000) iop(1/152=5000) pm6

Title

0 1
C -5.0710522388059704 1.0783507462686561 0.47044029850746183
C -3.8153522388059704 0.1782507462686569 0.19534029850746193
C -4.11845223880597 -1.3219492537313435 0.5608402985074619
C -2.96945223880597 -2.3874492537313436 0.7034402985074619
C -2.52015223880597 0.7359507462686565 0.7384402985074618
C -2.20305223880597 0.7852507462686571 2.097440298507462
C -1.5755522388059702 1.205650746268656 -0.18965970149253808
C -0.9533522388059701 1.2695507462686564 2.508640298507462
H -2.91125223880597 0.4298507462686567 2.840840298507462
C -0.32655223880597006 1.6562507462686575 0.21554029850746192
H -1.7850522388059702 1.178550746268657 -1.2573597014925382
C 0.004447761194029898 1.6956507462686563 1.569740298507462
H -0.7158522388059702 1.2676507462686573 3.5705402985074617
H 0.3943477611940298 1.9193507462686572 -0.5551597014925382
C -1.76045223880597 -2.1592492537313435 -0.1734597014925381
C -0.5287522388059701 -1.936549253731343 0.464840298507462
C -1.8068522388059702 -2.121249253731343 -1.5681597014925381
C 0.6114477611940299 -1.614449253731343 -0.2582597014925381
H -0.4544522388059702 -1.954049253731343 1.5506402985074619
C -0.6479522388059701 -1.8270492537313432 -2.2998597014925384
H -2.74345223880597 -2.290549253731343 -2.092259701492538
C 0.5698477611940298 -1.5506492537313434 -1.6506597014925382
H 1.5072477611940298 -1.351949253731343 0.2991402985074618
H -0.7173522388059701 -1.7640492537313435 -3.3840597014925375
C 1.7791477611940298 -1.082849253731343 -2.4255597014925376
H 1.4739477611940297 -0.9102492537313429 -3.464259701492538
H 2.1252477611940295 -0.1337492537313434 -2.0010597014925384
C 1.3965477611940298 2.0964507462686566 1.997440298507462
H 1.51704776119403 1.8448507462686567 3.057640298507462
H 2.1256477611940294 1.5207507462686571 1.4165402985074618
C 3.94864776119403 -1.4275492537313434 -3.522959701492538
H 4.81734776119403 -2.087049253731343 -3.615159701492538
H 3.4305477611940303 -1.3641492537313429 -4.484459701492538
H 4.26984776119403 -0.441449253731343 -3.176459701492538
C 2.60904776119403 -3.4296492537313434 -2.8992597014925376
H 1.9825477611940296 -3.869549253731343 -2.119359701492538
H 2.06294776119403 -3.373349253731343 -3.845759701492538
H 3.5215477611940305 -4.019849253731343 -3.0234597014925377
C 3.7281477611940304 -2.060049253731343 -1.156659701492538
H 3.9048477611940298 -1.032549253731343 -0.8295597014925382
H 3.12924776119403 -2.623249253731343 -0.4404597014925382
H 4.68244776119403 -2.5769492537313434 -1.3005597014925383
C 3.1110477611940297 3.755250746268656 2.588740298507462
H 3.40124776119403 4.809350746268656 2.534540298507462
H 2.9823477611940303 3.461750746268656 3.634840298507462
H 3.86514776119403 3.1392507462686563 2.091540298507462
C 1.99744776119403 3.9574507462686572 0.40494029850746194
H 2.67914776119403 3.230350746268657 -0.04295970149253803
H 1.03214776119403 3.981150746268657 -0.10175970149253821
H 2.4399477611940297 4.958250746268657 0.368240298507462
C 0.7418477611940297 4.4992507462686575 2.475440298507462
H -0.18475223880597014 4.424250746268656 1.901240298507462
H 0.57844776119403 4.189650746268656 3.511940298507462
H 1.1210477611940297 5.524350746268658 2.4432402985074617
N 3.00114776119403 -2.025349253731343 -2.490159701492538
N 1.7831477611940298 3.586450746268657 1.862540298507462
C -3.55075223880597 -3.8435492537313434 0.6444402985074619
H -2.62515223880597 -2.2736492537313433 1.7424402985074618
H -4.67195223880597 -1.3478492537313436 1.5102402985074619
H -4.83415223880597 -1.6757492537313432 -0.1945597014925382
H -3.7169522388059697 0.17335074626865676 -0.900559701492538
H -3.9132522388059705 -4.043149253731343 -0.34225970149253815
H -4.35435223880597 -3.9354492537313432 1.3449402985074619
H -2.78115223880597 -4.545049253731343 0.8904402985074619
H -5.24235223880597 1.138950746268657 1.5249402985074618
H -5.92805223880597 0.6501507462686567 -0.006059701492538094
H -4.89895223880597 2.059650746268657 0.08004029850746197
O 11.388132905384813 5.190833880582701 12.21088390285048
H 11.339510370728558 5.274162429329091 11.246695353350216
H 12.104481603955804 4.5544050401053005 12.354983928403003
O -3.208134287323754 -0.27087549961618124 -10.096602761206604
H -3.202973061517765 -0.24186425247764337 -9.128047617609893
H -2.83894557513497 -1.1418188094855724 -10.306648923004758
O 3.0396293309823945 -8.840054576262057 -3.021780053193351
H 2.716778782844332 -8.113733428101057 -2.4675305875183344
H 3.483616233248792 -8.393124488715982 -3.7580483954178043
O -0.6800468338043393 0.15759534917717166 -6.171185566198863
H -0.437145441919467 0.0738200788162785 -7.105502415450953
H 0.1067316463109344 0.5445103658808111 -5.758586078345665
O -8.702732451031 -2.9888114257011207 -11.662415134076262
H -8.074366110664398 -2.457872530511513 -11.150334096769546
H -9.51266929679466 -2.456867897373186 -11.66299206079604
O -3.875507835573433 -4.29939152428107 7.875982777839237
H -3.9407845886143678 -4.203451280378018 6.913952751274444
H -3.026009929393268 -4.746016091738821 8.009555781993113
O 1.7985993814017434 -0.23011048377694415 12.211657411129517
H 1.7198460546355967 -0.17870446185468908 11.247228724635075
H 1.8695267355221876 0.6952316627642827 12.490356472075094
O -3.3239903837493006 -4.564739808968168 -5.238545408181892
H -3.7506626291084966 -3.8062410618558364 -4.812402471399918
H -3.5257431681616334 -5.307786947999519 -4.6502098683245805
O -0.6511844106379111 -2.3286540073420188 6.122180170224357
H -1.0193742073656176 -1.4330057652343104 6.087282363774913
H -1.1260013434923408 -2.804272363304941 5.42411283533048
O -3.57768313594062 2.91799711239716 8.501523337539052
H -2.6304733329153303 2.925204584118639 8.705751147359793
H -3.8720638490601353 2.040141135988472 8.787304415860891
C 4.361146855292065 3.9384913204064818 9.648004558579174
O 4.485359112883008 3.820698779017284 10.832704727211405
O 4.236934597701123 4.056283861795679 8.463304389946943
C 2.576926230782691 -2.9235585226569683 2.65268454286964
O 1.8803623466194124 -1.9583911404414494 2.9265936120634297
O 3.7929414579157323 -2.885151354817794 2.4325406786827126
O 2.1736088102044437 -4.08807383629452 2.5532484982895


