%nprocshared=1
%mem=1GB
#p opt=(calcfc,cartesian,maxcycles=5000) iop(1/152=5000) pm6

Title

0 1
C -5.0710522388059704 1.0783507462686561 0.47044029850746183
C -3.8153522388059704 0.1782507462686569 0.19534029850746193
C -4.11845223880597 -1.3219492537313435 0.5608402985074619
C -2.96945223880597 -2.3874492537313436 0.7034402985074619
C -2.52015223880597 0.7359507462686565 0.7384402985074618
C -2.20305223880597 0.7852507462686571 2.097440298507462
C -1.5755522388059702 1.205650746268656 -0.18965970149253808
C -0.9533522388059701 1.2695507462686564 2.508640298507462
H -2.91125223880597 0.4298507462686567 2.840840298507462
C -0.32655223880597006 1.6562507462686575 0.21554029850746192
H -1.7850522388059702 1.178550746268657 -1.2573597014925382
C 0.004447761194029898 1.6956507462686563 1.569740298507462
H -0.7158522388059702 1.2676507462686573 3.5705402985074617
H 0.3943477611940298 1.9193507462686572 -0.5551597014925382
C -1.76045223880597 -2.1592492537313435 -0.1734597014925381
C -0.5287522388059701 -1.936549253731343 0.464840298507462
C -1.8068522388059702 -2.121249253731343 -1.5681597014925381
C 0.6114477611940299 -1.614449253731343 -0.2582597014925381
H -0.4544522388059702 -1.954049253731343 1.5506402985074619
C -0.6479522388059701 -1.8270492537313432 -2.2998597014925384
H -2.74345223880597 -2.290549253731343 -2.092259701492538
C 0.5698477611940298 -1.5506492537313434 -1.6506597014925382
H 1.5072477611940298 -1.351949253731343 0.2991402985074618
H -0.7173522388059701 -1.7640492537313435 -3.3840597014925375
C 1.7791477611940298 -1.082849253731343 -2.4255597014925376
H 1.4739477611940297 -0.9102492537313429 -3.464259701492538
H 2.1252477611940295 -0.1337492537313434 -2.0010597014925384
C 1.3965477611940298 2.0964507462686566 1.997440298507462
H 1.51704776119403 1.8448507462686567 3.057640298507462
H 2.1256477611940294 1.5207507462686571 1.4165402985074618
C 3.94864776119403 -1.4275492537313434 -3.522959701492538
H 4.81734776119403 -2.087049253731343 -3.615159701492538
H 3.4305477611940303 -1.3641492537313429 -4.484459701492538
H 4.26984776119403 -0.441449253731343 -3.176459701492538
C 2.60904776119403 -3.4296492537313434 -2.8992597014925376
H 1.9825477611940296 -3.869549253731343 -2.119359701492538
H 2.06294776119403 -3.373349253731343 -3.845759701492538
H 3.5215477611940305 -4.019849253731343 -3.0234597014925377
C 3.7281477611940304 -2.060049253731343 -1.156659701492538
H 3.9048477611940298 -1.032549253731343 -0.8295597014925382
H 3.12924776119403 -2.623249253731343 -0.4404597014925382
H 4.68244776119403 -2.5769492537313434 -1.3005597014925383
C 3.1110477611940297 3.755250746268656 2.588740298507462
H 3.40124776119403 4.809350746268656 2.534540298507462
H 2.9823477611940303 3.461750746268656 3.634840298507462
H 3.86514776119403 3.1392507462686563 2.091540298507462
C 1.99744776119403 3.9574507462686572 0.40494029850746194
H 2.67914776119403 3.230350746268657 -0.04295970149253803
H 1.03214776119403 3.981150746268657 -0.10175970149253821
H 2.4399477611940297 4.958250746268657 0.368240298507462
C 0.7418477611940297 4.4992507462686575 2.475440298507462
H -0.18475223880597014 4.424250746268656 1.901240298507462
H 0.57844776119403 4.189650746268656 3.511940298507462
H 1.1210477611940297 5.524350746268658 2.4432402985074617
N 3.00114776119403 -2.025349253731343 -2.490159701492538
N 1.7831477611940298 3.586450746268657 1.862540298507462
C -3.55075223880597 -3.8435492537313434 0.6444402985074619
H -2.62515223880597 -2.2736492537313433 1.7424402985074618
H -4.67195223880597 -1.3478492537313436 1.5102402985074619
H -4.83415223880597 -1.6757492537313432 -0.1945597014925382
H -3.7169522388059697 0.17335074626865676 -0.900559701492538
H -3.9132522388059705 -4.043149253731343 -0.34225970149253815
H -4.35435223880597 -3.9354492537313432 1.3449402985074619
H -2.78115223880597 -4.545049253731343 0.8904402985074619
H -5.24235223880597 1.138950746268657 1.5249402985074618
H -5.92805223880597 0.6501507462686567 -0.006059701492538094
H -4.89895223880597 2.059650746268657 0.08004029850746197
O -5.6956584332394025 9.3387114113426 6.759106759512715
H -5.85318789634791 9.911985129286188 5.993921115719078
H -5.893881032449356 8.449172803077861 6.4298791636631565
O -1.3090413357068609 -0.4600693458512351 6.80419061834477
H -0.46250505840398826 -0.15079454955673383 7.160129922843711
H -1.9115661995286366 0.2840018752260896 6.953468047117672
O 6.221595402837813 3.338359596859916 -6.318916960999807
H 6.147888425965014 3.3619850466521415 -5.353009886492953
H 5.3043241965793 3.2621863295159823 -6.621857733777591
O -1.7564159932150698 -1.998895517960138 -5.6330486996395805
H -1.8441214058668298 -1.922222823953835 -6.595023967245459
H -2.222763149634896 -2.821222966908306 -5.4203050964324815
O -5.0119298274338275 1.2289166955120263 10.87849090547012
H -4.188949359138856 1.0222490774057662 10.410560353645092
H -5.370599664025352 1.9892247902381648 10.396568200346863
O 11.28307019038925 -4.5461361240508955 -11.426746267813819
H 10.84083461902569 -3.7791029197553847 -11.032975878082812
H 11.037667104362463 -5.281660222336564 -10.84558917157427
O -9.787667363124973 8.921715600466516 9.944679185913527
H -9.526079158537076 8.893726178866075 9.012072323190035
H -9.7787418507566 7.992183957798982 10.218272323270368
O 3.361732049224697 -4.338124100711894 7.9620596364121194
H 3.464213529457936 -3.732672173404328 7.2124645011365764
H 2.415297638807357 -4.299587787441198 8.16636040400119
O 1.6959363642540668 -0.23125222550369778 -7.361094338190202
H 2.136141793802548 -0.7739808866026816 -8.03238573327712
H 0.9130515091217628 -0.7482352511861107 -7.118644757739485
O -12.809779300483452 3.809655675774769 -14.2630900323745
H -12.703625721743862 4.36154311495406 -13.47371114419918
H -12.692943228971684 4.428986776950094 -14.999120102283776
C 5.20301045089775 6.13306706156814 7.763031867943685
O 5.289882101005039 7.157800478745682 7.150501870778424
O 5.116138800790461 5.108333644390599 8.375561865108946
C 9.131636301307076 -9.266560906958498 9.090010198956968
O 10.228631525226985 -8.729587840484921 9.083935400287922
O 8.743136852621225 -10.08403886558603 9.932286537001055
O 8.240223658354527 -9.075583999930197 8.254809800629564


