%nprocshared=1
%mem=1GB
#p opt=(calcfc,cartesian,maxcycles=5000) iop(1/152=5000) pm6

Title

0 1
C -5.0710522388059704 1.0783507462686561 0.47044029850746183
C -3.8153522388059704 0.1782507462686569 0.19534029850746193
C -4.11845223880597 -1.3219492537313435 0.5608402985074619
C -2.96945223880597 -2.3874492537313436 0.7034402985074619
C -2.52015223880597 0.7359507462686565 0.7384402985074618
C -2.20305223880597 0.7852507462686571 2.097440298507462
C -1.5755522388059702 1.205650746268656 -0.18965970149253808
C -0.9533522388059701 1.2695507462686564 2.508640298507462
H -2.91125223880597 0.4298507462686567 2.840840298507462
C -0.32655223880597006 1.6562507462686575 0.21554029850746192
H -1.7850522388059702 1.178550746268657 -1.2573597014925382
C 0.004447761194029898 1.6956507462686563 1.569740298507462
H -0.7158522388059702 1.2676507462686573 3.5705402985074617
H 0.3943477611940298 1.9193507462686572 -0.5551597014925382
C -1.76045223880597 -2.1592492537313435 -0.1734597014925381
C -0.5287522388059701 -1.936549253731343 0.464840298507462
C -1.8068522388059702 -2.121249253731343 -1.5681597014925381
C 0.6114477611940299 -1.614449253731343 -0.2582597014925381
H -0.4544522388059702 -1.954049253731343 1.5506402985074619
C -0.6479522388059701 -1.8270492537313432 -2.2998597014925384
H -2.74345223880597 -2.290549253731343 -2.092259701492538
C 0.5698477611940298 -1.5506492537313434 -1.6506597014925382
H 1.5072477611940298 -1.351949253731343 0.2991402985074618
H -0.7173522388059701 -1.7640492537313435 -3.3840597014925375
C 1.7791477611940298 -1.082849253731343 -2.4255597014925376
H 1.4739477611940297 -0.9102492537313429 -3.464259701492538
H 2.1252477611940295 -0.1337492537313434 -2.0010597014925384
C 1.3965477611940298 2.0964507462686566 1.997440298507462
H 1.51704776119403 1.8448507462686567 3.057640298507462
H 2.1256477611940294 1.5207507462686571 1.4165402985074618
C 3.94864776119403 -1.4275492537313434 -3.522959701492538
H 4.81734776119403 -2.087049253731343 -3.615159701492538
H 3.4305477611940303 -1.3641492537313429 -4.484459701492538
H 4.26984776119403 -0.441449253731343 -3.176459701492538
C 2.60904776119403 -3.4296492537313434 -2.8992597014925376
H 1.9825477611940296 -3.869549253731343 -2.119359701492538
H 2.06294776119403 -3.373349253731343 -3.845759701492538
H 3.5215477611940305 -4.019849253731343 -3.0234597014925377
C 3.7281477611940304 -2.060049253731343 -1.156659701492538
H 3.9048477611940298 -1.032549253731343 -0.8295597014925382
H 3.12924776119403 -2.623249253731343 -0.4404597014925382
H 4.68244776119403 -2.5769492537313434 -1.3005597014925383
C 3.1110477611940297 3.755250746268656 2.588740298507462
H 3.40124776119403 4.809350746268656 2.534540298507462
H 2.9823477611940303 3.461750746268656 3.634840298507462
H 3.86514776119403 3.1392507462686563 2.091540298507462
C 1.99744776119403 3.9574507462686572 0.40494029850746194
H 2.67914776119403 3.230350746268657 -0.04295970149253803
H 1.03214776119403 3.981150746268657 -0.10175970149253821
H 2.4399477611940297 4.958250746268657 0.368240298507462
C 0.7418477611940297 4.4992507462686575 2.475440298507462
H -0.18475223880597014 4.424250746268656 1.901240298507462
H 0.57844776119403 4.189650746268656 3.511940298507462
H 1.1210477611940297 5.524350746268658 2.4432402985074617
N 3.00114776119403 -2.025349253731343 -2.490159701492538
N 1.7831477611940298 3.586450746268657 1.862540298507462
C -3.55075223880597 -3.8435492537313434 0.6444402985074619
H -2.62515223880597 -2.2736492537313433 1.7424402985074618
H -4.67195223880597 -1.3478492537313436 1.5102402985074619
H -4.83415223880597 -1.6757492537313432 -0.1945597014925382
H -3.7169522388059697 0.17335074626865676 -0.900559701492538
H -3.9132522388059705 -4.043149253731343 -0.34225970149253815
H -4.35435223880597 -3.9354492537313432 1.3449402985074619
H -2.78115223880597 -4.545049253731343 0.8904402985074619
H -5.24235223880597 1.138950746268657 1.5249402985074618
H -5.92805223880597 0.6501507462686567 -0.006059701492538094
H -4.89895223880597 2.059650746268657 0.08004029850746197
O 4.616568685528777 -4.734328855982819 -6.654952280722653
H 4.6568850538007664 -4.600614367155076 -7.61383829210612
H 5.062757179692836 -5.583531345919093 -6.518084084776178
O -12.17201914957242 -0.16428330623899373 14.020831009571397
H -12.690056364271188 0.21501016610435358 14.746600437781812
H -12.516285524014519 0.27900670093805996 13.230934448453764
O -1.4735120511786448 9.121683811021757 1.589903672772953
H -1.9389106997762522 8.996002602189003 2.430484239125673
H -1.6796254502505934 8.320018318640631 1.086106442383251
O 0.21347740456925568 -0.11968151372257324 -11.625730060398547
H 0.3393075869426633 0.7316835117838288 -12.071052096063031
H 0.9830927949532382 -0.19434616670589966 -11.04171012514035
O -2.5635717722013265 -3.784043117009419 4.5851275093043595
H -2.718627744344797 -3.6239927024768726 3.642095766884941
H -1.6756785201426272 -3.428217182059453 4.740032064646053
O 3.1442622915136 2.5190302248730614 9.867844430986281
H 2.945095258131486 2.0732424341674647 10.704846877441243
H 3.8209404494313306 1.9584941912534346 9.459349669806846
O 4.606155200644214 5.4504047259424775 -5.525630396357918
H 5.378042557792262 5.594693134115469 -4.957882107023719
H 4.809296504943122 4.625461174457435 -5.991638649129243
O 2.319436642806985 -6.199753549888649 2.700741238924385
H 2.9730544662332186 -6.218163899028383 1.9856103719887543
H 2.6900725154644087 -6.792321266488804 3.3719003075830356
O 0.8370788780338008 -3.386519625981551 0.9368257515902355
H 0.8239243071167135 -4.331528474166797 0.7229271984965245
H 1.4972736053060838 -3.3154473186510622 1.6425548735007571
O 1.8825223082416445 8.65654124497084 -1.3655531985814733
H 2.056734376438083 8.212956231506933 -2.209265144701087
H 1.074291735964138 9.164865347366153 -1.5308768002237505
C 6.807404244986409 8.318375133928672 8.233149640121898
O 6.029531994662285 8.202224148586248 7.330796068577091
O 7.5852764953105325 8.434526119271096 9.135503211666704
C -6.675105974457021 -4.113709937772189 6.762399904999078
O -6.894651901403561 -3.087273447523506 6.137897530266082
O -5.806533479818432 -4.9472479260412925 6.480570687618064
O -7.287535777285293 -4.477753496874952 7.772870294512554


