%nprocshared=1
%mem=1GB
#p opt=(calcfc,cartesian,maxcycles=5000) iop(1/152=5000) pm6

Title

0 1
C -5.0710522388059704 1.0783507462686561 0.47044029850746183
C -3.8153522388059704 0.1782507462686569 0.19534029850746193
C -4.11845223880597 -1.3219492537313435 0.5608402985074619
C -2.96945223880597 -2.3874492537313436 0.7034402985074619
C -2.52015223880597 0.7359507462686565 0.7384402985074618
C -2.20305223880597 0.7852507462686571 2.097440298507462
C -1.5755522388059702 1.205650746268656 -0.18965970149253808
C -0.9533522388059701 1.2695507462686564 2.508640298507462
H -2.91125223880597 0.4298507462686567 2.840840298507462
C -0.32655223880597006 1.6562507462686575 0.21554029850746192
H -1.7850522388059702 1.178550746268657 -1.2573597014925382
C 0.004447761194029898 1.6956507462686563 1.569740298507462
H -0.7158522388059702 1.2676507462686573 3.5705402985074617
H 0.3943477611940298 1.9193507462686572 -0.5551597014925382
C -1.76045223880597 -2.1592492537313435 -0.1734597014925381
C -0.5287522388059701 -1.936549253731343 0.464840298507462
C -1.8068522388059702 -2.121249253731343 -1.5681597014925381
C 0.6114477611940299 -1.614449253731343 -0.2582597014925381
H -0.4544522388059702 -1.954049253731343 1.5506402985074619
C -0.6479522388059701 -1.8270492537313432 -2.2998597014925384
H -2.74345223880597 -2.290549253731343 -2.092259701492538
C 0.5698477611940298 -1.5506492537313434 -1.6506597014925382
H 1.5072477611940298 -1.351949253731343 0.2991402985074618
H -0.7173522388059701 -1.7640492537313435 -3.3840597014925375
C 1.7791477611940298 -1.082849253731343 -2.4255597014925376
H 1.4739477611940297 -0.9102492537313429 -3.464259701492538
H 2.1252477611940295 -0.1337492537313434 -2.0010597014925384
C 1.3965477611940298 2.0964507462686566 1.997440298507462
H 1.51704776119403 1.8448507462686567 3.057640298507462
H 2.1256477611940294 1.5207507462686571 1.4165402985074618
C 3.94864776119403 -1.4275492537313434 -3.522959701492538
H 4.81734776119403 -2.087049253731343 -3.615159701492538
H 3.4305477611940303 -1.3641492537313429 -4.484459701492538
H 4.26984776119403 -0.441449253731343 -3.176459701492538
C 2.60904776119403 -3.4296492537313434 -2.8992597014925376
H 1.9825477611940296 -3.869549253731343 -2.119359701492538
H 2.06294776119403 -3.373349253731343 -3.845759701492538
H 3.5215477611940305 -4.019849253731343 -3.0234597014925377
C 3.7281477611940304 -2.060049253731343 -1.156659701492538
H 3.9048477611940298 -1.032549253731343 -0.8295597014925382
H 3.12924776119403 -2.623249253731343 -0.4404597014925382
H 4.68244776119403 -2.5769492537313434 -1.3005597014925383
C 3.1110477611940297 3.755250746268656 2.588740298507462
H 3.40124776119403 4.809350746268656 2.534540298507462
H 2.9823477611940303 3.461750746268656 3.634840298507462
H 3.86514776119403 3.1392507462686563 2.091540298507462
C 1.99744776119403 3.9574507462686572 0.40494029850746194
H 2.67914776119403 3.230350746268657 -0.04295970149253803
H 1.03214776119403 3.981150746268657 -0.10175970149253821
H 2.4399477611940297 4.958250746268657 0.368240298507462
C 0.7418477611940297 4.4992507462686575 2.475440298507462
H -0.18475223880597014 4.424250746268656 1.901240298507462
H 0.57844776119403 4.189650746268656 3.511940298507462
H 1.1210477611940297 5.524350746268658 2.4432402985074617
N 3.00114776119403 -2.025349253731343 -2.490159701492538
N 1.7831477611940298 3.586450746268657 1.862540298507462
C -3.55075223880597 -3.8435492537313434 0.6444402985074619
H -2.62515223880597 -2.2736492537313433 1.7424402985074618
H -4.67195223880597 -1.3478492537313436 1.5102402985074619
H -4.83415223880597 -1.6757492537313432 -0.1945597014925382
H -3.7169522388059697 0.17335074626865676 -0.900559701492538
H -3.9132522388059705 -4.043149253731343 -0.34225970149253815
H -4.35435223880597 -3.9354492537313432 1.3449402985074619
H -2.78115223880597 -4.545049253731343 0.8904402985074619
H -5.24235223880597 1.138950746268657 1.5249402985074618
H -5.92805223880597 0.6501507462686567 -0.006059701492538094
H -4.89895223880597 2.059650746268657 0.08004029850746197
O -4.467555627184752 0.5111754467431061 4.860930680962875
H -3.7987496415500663 0.16998593285419616 5.473511798931319
H -4.05266030604195 1.297582030714124 4.475718399901062
O 2.3002338532975393 -4.826194175992068 5.237284666731442
H 2.089305025592429 -4.962029774585666 4.301322553877686
H 1.9055183201271337 -3.965631290486277 5.443665654867337
O 5.415120670431562 -2.036818710015543 -11.694443884215746
H 5.240013881660106 -2.111318508653043 -10.744309815029126
H 6.133171388952564 -1.3885282808269168 -11.749983323841095
O 11.025643331528919 -8.705586934459816 12.142175929384685
H 10.887952370915947 -8.37476433723216 11.241862114412914
H 11.798584147039957 -9.28461526700303 12.063115002692955
O -0.36421355992987947 -0.0217503469970904 -6.264044453826492
H -0.09167976755965081 -0.24000872309830237 -5.360132970229804
H 0.4564455090872745 0.2625865060289166 -6.693734098513404
O -6.1778750077296225 -2.1888038162311276 6.995771525928352
H -5.720926948089114 -1.7256436389553276 6.277684847402266
H -6.8998170388286635 -2.6570313931139906 6.550210548867979
O 2.8095783206480456 0.338890164575139 -14.904085198825083
H 3.459257463522411 0.0957453499998504 -14.227501894745547
H 3.0681223322127424 1.2354677937560203 -15.165361859161255
O 3.3924288211752605 -10.417810231246557 4.711839614584797
H 3.1787164967425032 -9.483485521703745 4.854429012589312
H 3.595288110364109 -10.469767778149908 3.7657368366533612
O -0.5695650744972254 -14.131288725802335 -0.3349702892567686
H -1.3018889353251846 -13.616725083528697 -0.7063102653058346
H 0.22259022025616526 -13.657527289488423 -0.6299313625460206
O -12.2499975301874 -8.404163456426826 -11.930379550052534
H -11.672765994243866 -9.126960094692725 -12.219059529482669
H -12.340321494602938 -7.847728997857017 -12.718531958580467
C -3.2134646252919215 -7.022107695712268 4.993433114101521
O -3.519223295045318 -5.978187932235286 4.49387188602953
O -2.907705955538525 -8.06602745918925 5.492994342173511
C 0.8589474345274221 0.7408881828958632 6.577330650478264
O 1.9835741425580533 0.28500121897484887 6.715740701815095
O -0.12893846862590197 0.09895916462320764 6.202310595080627
O 0.5346906663531117 1.9147316482252403 6.790866248439521


