%nprocshared=1
%mem=1GB
#p opt=(calcfc,cartesian,maxcycles=5000) iop(1/152=5000) pm6

Title

0 1
C -5.0710522388059704 1.0783507462686561 0.47044029850746183
C -3.8153522388059704 0.1782507462686569 0.19534029850746193
C -4.11845223880597 -1.3219492537313435 0.5608402985074619
C -2.96945223880597 -2.3874492537313436 0.7034402985074619
C -2.52015223880597 0.7359507462686565 0.7384402985074618
C -2.20305223880597 0.7852507462686571 2.097440298507462
C -1.5755522388059702 1.205650746268656 -0.18965970149253808
C -0.9533522388059701 1.2695507462686564 2.508640298507462
H -2.91125223880597 0.4298507462686567 2.840840298507462
C -0.32655223880597006 1.6562507462686575 0.21554029850746192
H -1.7850522388059702 1.178550746268657 -1.2573597014925382
C 0.004447761194029898 1.6956507462686563 1.569740298507462
H -0.7158522388059702 1.2676507462686573 3.5705402985074617
H 0.3943477611940298 1.9193507462686572 -0.5551597014925382
C -1.76045223880597 -2.1592492537313435 -0.1734597014925381
C -0.5287522388059701 -1.936549253731343 0.464840298507462
C -1.8068522388059702 -2.121249253731343 -1.5681597014925381
C 0.6114477611940299 -1.614449253731343 -0.2582597014925381
H -0.4544522388059702 -1.954049253731343 1.5506402985074619
C -0.6479522388059701 -1.8270492537313432 -2.2998597014925384
H -2.74345223880597 -2.290549253731343 -2.092259701492538
C 0.5698477611940298 -1.5506492537313434 -1.6506597014925382
H 1.5072477611940298 -1.351949253731343 0.2991402985074618
H -0.7173522388059701 -1.7640492537313435 -3.3840597014925375
C 1.7791477611940298 -1.082849253731343 -2.4255597014925376
H 1.4739477611940297 -0.9102492537313429 -3.464259701492538
H 2.1252477611940295 -0.1337492537313434 -2.0010597014925384
C 1.3965477611940298 2.0964507462686566 1.997440298507462
H 1.51704776119403 1.8448507462686567 3.057640298507462
H 2.1256477611940294 1.5207507462686571 1.4165402985074618
C 3.94864776119403 -1.4275492537313434 -3.522959701492538
H 4.81734776119403 -2.087049253731343 -3.615159701492538
H 3.4305477611940303 -1.3641492537313429 -4.484459701492538
H 4.26984776119403 -0.441449253731343 -3.176459701492538
C 2.60904776119403 -3.4296492537313434 -2.8992597014925376
H 1.9825477611940296 -3.869549253731343 -2.119359701492538
H 2.06294776119403 -3.373349253731343 -3.845759701492538
H 3.5215477611940305 -4.019849253731343 -3.0234597014925377
C 3.7281477611940304 -2.060049253731343 -1.156659701492538
H 3.9048477611940298 -1.032549253731343 -0.8295597014925382
H 3.12924776119403 -2.623249253731343 -0.4404597014925382
H 4.68244776119403 -2.5769492537313434 -1.3005597014925383
C 3.1110477611940297 3.755250746268656 2.588740298507462
H 3.40124776119403 4.809350746268656 2.534540298507462
H 2.9823477611940303 3.461750746268656 3.634840298507462
H 3.86514776119403 3.1392507462686563 2.091540298507462
C 1.99744776119403 3.9574507462686572 0.40494029850746194
H 2.67914776119403 3.230350746268657 -0.04295970149253803
H 1.03214776119403 3.981150746268657 -0.10175970149253821
H 2.4399477611940297 4.958250746268657 0.368240298507462
C 0.7418477611940297 4.4992507462686575 2.475440298507462
H -0.18475223880597014 4.424250746268656 1.901240298507462
H 0.57844776119403 4.189650746268656 3.511940298507462
H 1.1210477611940297 5.524350746268658 2.4432402985074617
N 3.00114776119403 -2.025349253731343 -2.490159701492538
N 1.7831477611940298 3.586450746268657 1.862540298507462
C -3.55075223880597 -3.8435492537313434 0.6444402985074619
H -2.62515223880597 -2.2736492537313433 1.7424402985074618
H -4.67195223880597 -1.3478492537313436 1.5102402985074619
H -4.83415223880597 -1.6757492537313432 -0.1945597014925382
H -3.7169522388059697 0.17335074626865676 -0.900559701492538
H -3.9132522388059705 -4.043149253731343 -0.34225970149253815
H -4.35435223880597 -3.9354492537313432 1.3449402985074619
H -2.78115223880597 -4.545049253731343 0.8904402985074619
H -5.24235223880597 1.138950746268657 1.5249402985074618
H -5.92805223880597 0.6501507462686567 -0.006059701492538094
H -4.89895223880597 2.059650746268657 0.08004029850746197
O -7.145294788058991 2.6335240077584823 11.236144263438767
H -6.669274378364603 2.050751575575664 10.625613167799806
H -6.447398060848355 3.007643592127669 11.794657145152438
O -0.35619364256880115 -8.277234669310989 0.9300686317144025
H -0.4642497616229609 -8.189003248593188 -0.028840356893522157
H -0.7706815223943577 -7.477338108833928 1.2868980507855916
O 9.939879891143104 3.6653331816707913 -11.435500113305821
H 10.001291532571631 3.723401098562167 -10.47018975687896
H 10.661747308167909 4.229908694510193 -11.750339543555688
O -3.364154811705709 6.692583306951558 -4.963906696244441
H -3.6725514589189143 6.481059787263414 -4.069973440622751
H -4.09401492832584 7.200275525181465 -5.349282832007988
O -0.38549663083386315 -4.764802744926106 -0.4299623361779235
H -1.0529039729267031 -4.169464574202625 -0.05699148061385911
H 0.21710885820615383 -4.1728036536189315 -0.9046892521731307
O 6.429168253978603 3.4670559184895366 8.690626678506955
H 6.475327409489143 3.4563450161945095 9.658470656550204
H 7.348176938740644 3.3396935679869912 8.411048758587643
O 1.140049067752008 4.5938354399040575 -3.686865575688408
H 1.63909924795525 4.591621530978071 -4.517474613170171
H 1.1501203317437572 5.522455474691157 -3.410233428363457
O 5.7439603065218705 -1.703447646347717 -5.4246040067648
H 5.790057292385589 -0.8108402521186207 -5.798895957735995
H 5.282355634247243 -2.218337370745485 -6.103405629143404
O 3.6520554308252224 2.041361451013043 10.17529260211485
H 4.386051857381572 2.5798160779697605 9.843203431241404
H 2.8686700388042445 2.5882681772896237 10.013544944878117
O -3.4848729275606907 0.20215621528631778 -5.212190811696
H -4.373615503720929 0.4008425053562117 -4.881089998712514
H -3.317771144375123 -0.7019271262388252 -4.906131585511043
C -6.156412867746795 3.3278507370449413 6.157920490738428
O -6.247797456503625 3.0220064847774597 7.311578328917795
O -6.065028278989964 3.633694989312423 5.004262652559062
C -3.160180206547086 -0.5675115645560139 13.718916646759364
O -3.6886034098206744 -0.027262815671576623 12.759398170558473
O -2.1565348282090695 -0.1501990354384296 14.308134494148787
O -3.5473026865832553 -1.6151643749536195 14.249207282841734


