%nprocshared=1
%mem=1GB
#p opt=(calcfc,cartesian,maxcycles=5000) iop(1/152=5000) pm6

Title

0 1
C -5.0710522388059704 1.0783507462686561 0.47044029850746183
C -3.8153522388059704 0.1782507462686569 0.19534029850746193
C -4.11845223880597 -1.3219492537313435 0.5608402985074619
C -2.96945223880597 -2.3874492537313436 0.7034402985074619
C -2.52015223880597 0.7359507462686565 0.7384402985074618
C -2.20305223880597 0.7852507462686571 2.097440298507462
C -1.5755522388059702 1.205650746268656 -0.18965970149253808
C -0.9533522388059701 1.2695507462686564 2.508640298507462
H -2.91125223880597 0.4298507462686567 2.840840298507462
C -0.32655223880597006 1.6562507462686575 0.21554029850746192
H -1.7850522388059702 1.178550746268657 -1.2573597014925382
C 0.004447761194029898 1.6956507462686563 1.569740298507462
H -0.7158522388059702 1.2676507462686573 3.5705402985074617
H 0.3943477611940298 1.9193507462686572 -0.5551597014925382
C -1.76045223880597 -2.1592492537313435 -0.1734597014925381
C -0.5287522388059701 -1.936549253731343 0.464840298507462
C -1.8068522388059702 -2.121249253731343 -1.5681597014925381
C 0.6114477611940299 -1.614449253731343 -0.2582597014925381
H -0.4544522388059702 -1.954049253731343 1.5506402985074619
C -0.6479522388059701 -1.8270492537313432 -2.2998597014925384
H -2.74345223880597 -2.290549253731343 -2.092259701492538
C 0.5698477611940298 -1.5506492537313434 -1.6506597014925382
H 1.5072477611940298 -1.351949253731343 0.2991402985074618
H -0.7173522388059701 -1.7640492537313435 -3.3840597014925375
C 1.7791477611940298 -1.082849253731343 -2.4255597014925376
H 1.4739477611940297 -0.9102492537313429 -3.464259701492538
H 2.1252477611940295 -0.1337492537313434 -2.0010597014925384
C 1.3965477611940298 2.0964507462686566 1.997440298507462
H 1.51704776119403 1.8448507462686567 3.057640298507462
H 2.1256477611940294 1.5207507462686571 1.4165402985074618
C 3.94864776119403 -1.4275492537313434 -3.522959701492538
H 4.81734776119403 -2.087049253731343 -3.615159701492538
H 3.4305477611940303 -1.3641492537313429 -4.484459701492538
H 4.26984776119403 -0.441449253731343 -3.176459701492538
C 2.60904776119403 -3.4296492537313434 -2.8992597014925376
H 1.9825477611940296 -3.869549253731343 -2.119359701492538
H 2.06294776119403 -3.373349253731343 -3.845759701492538
H 3.5215477611940305 -4.019849253731343 -3.0234597014925377
C 3.7281477611940304 -2.060049253731343 -1.156659701492538
H 3.9048477611940298 -1.032549253731343 -0.8295597014925382
H 3.12924776119403 -2.623249253731343 -0.4404597014925382
H 4.68244776119403 -2.5769492537313434 -1.3005597014925383
C 3.1110477611940297 3.755250746268656 2.588740298507462
H 3.40124776119403 4.809350746268656 2.534540298507462
H 2.9823477611940303 3.461750746268656 3.634840298507462
H 3.86514776119403 3.1392507462686563 2.091540298507462
C 1.99744776119403 3.9574507462686572 0.40494029850746194
H 2.67914776119403 3.230350746268657 -0.04295970149253803
H 1.03214776119403 3.981150746268657 -0.10175970149253821
H 2.4399477611940297 4.958250746268657 0.368240298507462
C 0.7418477611940297 4.4992507462686575 2.475440298507462
H -0.18475223880597014 4.424250746268656 1.901240298507462
H 0.57844776119403 4.189650746268656 3.511940298507462
H 1.1210477611940297 5.524350746268658 2.4432402985074617
N 3.00114776119403 -2.025349253731343 -2.490159701492538
N 1.7831477611940298 3.586450746268657 1.862540298507462
C -3.55075223880597 -3.8435492537313434 0.6444402985074619
H -2.62515223880597 -2.2736492537313433 1.7424402985074618
H -4.67195223880597 -1.3478492537313436 1.5102402985074619
H -4.83415223880597 -1.6757492537313432 -0.1945597014925382
H -3.7169522388059697 0.17335074626865676 -0.900559701492538
H -3.9132522388059705 -4.043149253731343 -0.34225970149253815
H -4.35435223880597 -3.9354492537313432 1.3449402985074619
H -2.78115223880597 -4.545049253731343 0.8904402985074619
H -5.24235223880597 1.138950746268657 1.5249402985074618
H -5.92805223880597 0.6501507462686567 -0.006059701492538094
H -4.89895223880597 2.059650746268657 0.08004029850746197
O 6.196851901210303 10.171394185732908 -6.755376720909792
H 6.863158470541288 10.449132693708288 -7.401800911170325
H 6.0993501195072435 9.220387638496366 -6.913623028853951
O 0.421865152687291 -0.4234228086964184 -12.986438547465522
H 0.5937867828806841 -0.48469009701324517 -12.034778613794911
H -0.004848419000140491 0.44012651821783544 -13.092079600203999
O 2.0996917476843766 0.9155316820320292 -9.167003508591643
H 1.8578322982042694 1.169178783342629 -10.070405142193172
H 2.0299314112993905 -0.050953076695276156 -9.168631671751559
O -4.024992951414918 9.014722141204997 -4.499631611355011
H -3.738097228945728 8.099697600533952 -4.360389766715449
H -4.326270116981944 9.301314429285739 -3.6243837183438123
O 6.270381081889422 -4.787549689276067 -6.619319771382447
H 6.709293603912886 -4.310294499720662 -7.339424374168347
H 6.510917459186867 -4.28641032435532 -5.8256173508094395
O -1.193225668819655 2.6256679433952006 5.615203308956109
H -0.4295234082827558 2.0347327818521044 5.6959612745252475
H -1.9562043570582328 2.0306853412869463 5.668317984726836
O -6.815778446232814 -3.7475270348227165 8.711503073796145
H -7.022961652253713 -4.031023838194734 7.808357438518672
H -6.777823784052764 -4.575326447326709 9.213767466896874
O 2.2770700980751983 6.290354591142 -3.580777904247959
H 1.3180249232546517 6.2533404098412015 -3.714305653933411
H 2.375903984909306 6.403731034555436 -2.623521622371375
O 10.514139532126595 -5.81525938205477 11.976255216840183
H 10.07484774377595 -6.594927946968504 11.60462770107601
H 9.886307883931458 -5.48533005734586 12.636509718166527
O 7.2808609592978755 -1.891215460446835 -14.213840494354738
H 6.866798176526466 -2.0216208172179795 -15.080162496700856
H 6.955818491018572 -2.63507931009226 -13.684712994308118
C 4.4350525165911385 -2.8200721768100054 6.750831669859937
O 3.982196081206478 -3.5091959384259988 5.883163676093357
O 4.887908951975799 -2.130948415194012 7.618499663626517
C 0.4349822640346772 -7.019015459440451 -0.8568297493789829
O -0.3841797892856015 -6.122895274801955 -0.7237221099153759
O 0.31261020706990705 -8.167539545470063 -0.4157526953577461
O 1.513112145186605 -6.916022143873898 -1.4532161348003294


