%nprocshared=1
%mem=1GB
#p opt=(calcfc,cartesian,maxcycles=5000) iop(1/152=5000) pm6

Title

0 1
C -5.0710522388059704 1.0783507462686561 0.47044029850746183
C -3.8153522388059704 0.1782507462686569 0.19534029850746193
C -4.11845223880597 -1.3219492537313435 0.5608402985074619
C -2.96945223880597 -2.3874492537313436 0.7034402985074619
C -2.52015223880597 0.7359507462686565 0.7384402985074618
C -2.20305223880597 0.7852507462686571 2.097440298507462
C -1.5755522388059702 1.205650746268656 -0.18965970149253808
C -0.9533522388059701 1.2695507462686564 2.508640298507462
H -2.91125223880597 0.4298507462686567 2.840840298507462
C -0.32655223880597006 1.6562507462686575 0.21554029850746192
H -1.7850522388059702 1.178550746268657 -1.2573597014925382
C 0.004447761194029898 1.6956507462686563 1.569740298507462
H -0.7158522388059702 1.2676507462686573 3.5705402985074617
H 0.3943477611940298 1.9193507462686572 -0.5551597014925382
C -1.76045223880597 -2.1592492537313435 -0.1734597014925381
C -0.5287522388059701 -1.936549253731343 0.464840298507462
C -1.8068522388059702 -2.121249253731343 -1.5681597014925381
C 0.6114477611940299 -1.614449253731343 -0.2582597014925381
H -0.4544522388059702 -1.954049253731343 1.5506402985074619
C -0.6479522388059701 -1.8270492537313432 -2.2998597014925384
H -2.74345223880597 -2.290549253731343 -2.092259701492538
C 0.5698477611940298 -1.5506492537313434 -1.6506597014925382
H 1.5072477611940298 -1.351949253731343 0.2991402985074618
H -0.7173522388059701 -1.7640492537313435 -3.3840597014925375
C 1.7791477611940298 -1.082849253731343 -2.4255597014925376
H 1.4739477611940297 -0.9102492537313429 -3.464259701492538
H 2.1252477611940295 -0.1337492537313434 -2.0010597014925384
C 1.3965477611940298 2.0964507462686566 1.997440298507462
H 1.51704776119403 1.8448507462686567 3.057640298507462
H 2.1256477611940294 1.5207507462686571 1.4165402985074618
C 3.94864776119403 -1.4275492537313434 -3.522959701492538
H 4.81734776119403 -2.087049253731343 -3.615159701492538
H 3.4305477611940303 -1.3641492537313429 -4.484459701492538
H 4.26984776119403 -0.441449253731343 -3.176459701492538
C 2.60904776119403 -3.4296492537313434 -2.8992597014925376
H 1.9825477611940296 -3.869549253731343 -2.119359701492538
H 2.06294776119403 -3.373349253731343 -3.845759701492538
H 3.5215477611940305 -4.019849253731343 -3.0234597014925377
C 3.7281477611940304 -2.060049253731343 -1.156659701492538
H 3.9048477611940298 -1.032549253731343 -0.8295597014925382
H 3.12924776119403 -2.623249253731343 -0.4404597014925382
H 4.68244776119403 -2.5769492537313434 -1.3005597014925383
C 3.1110477611940297 3.755250746268656 2.588740298507462
H 3.40124776119403 4.809350746268656 2.534540298507462
H 2.9823477611940303 3.461750746268656 3.634840298507462
H 3.86514776119403 3.1392507462686563 2.091540298507462
C 1.99744776119403 3.9574507462686572 0.40494029850746194
H 2.67914776119403 3.230350746268657 -0.04295970149253803
H 1.03214776119403 3.981150746268657 -0.10175970149253821
H 2.4399477611940297 4.958250746268657 0.368240298507462
C 0.7418477611940297 4.4992507462686575 2.475440298507462
H -0.18475223880597014 4.424250746268656 1.901240298507462
H 0.57844776119403 4.189650746268656 3.511940298507462
H 1.1210477611940297 5.524350746268658 2.4432402985074617
N 3.00114776119403 -2.025349253731343 -2.490159701492538
N 1.7831477611940298 3.586450746268657 1.862540298507462
C -3.55075223880597 -3.8435492537313434 0.6444402985074619
H -2.62515223880597 -2.2736492537313433 1.7424402985074618
H -4.67195223880597 -1.3478492537313436 1.5102402985074619
H -4.83415223880597 -1.6757492537313432 -0.1945597014925382
H -3.7169522388059697 0.17335074626865676 -0.900559701492538
H -3.9132522388059705 -4.043149253731343 -0.34225970149253815
H -4.35435223880597 -3.9354492537313432 1.3449402985074619
H -2.78115223880597 -4.545049253731343 0.8904402985074619
H -5.24235223880597 1.138950746268657 1.5249402985074618
H -5.92805223880597 0.6501507462686567 -0.006059701492538094
H -4.89895223880597 2.059650746268657 0.08004029850746197
O 13.68819390585522 5.033872473040031 -13.742389108491526
H 13.80701467047538 5.995562446694278 -13.741215495277048
H 14.071513775189485 4.751703829278004 -14.586432163407007
O 3.073048830955586 2.447494761050592 -10.539323492640948
H 2.798860623520893 1.6221989068434874 -10.966728378940012
H 3.98660590993002 2.5729749768834647 -10.8370316100819
O 5.286981194372744 -6.175735922816677 -5.888779973297211
H 5.532930197714397 -7.0321356782411515 -6.269642026492522
H 5.193640111340148 -6.358843021314917 -4.9418263434937995
O -1.820317215613269 -4.235619470450229 -2.89978778129791
H -1.4040357086103703 -4.351565430415443 -2.032473767693182
H -2.768618416110914 -4.208193925035203 -2.7024692142713556
O 1.4665353851701757 2.9940233278991126 -3.648168082153333
H 0.8190262297021403 3.579591182679036 -4.0686553446637586
H 1.5737655322159474 2.2696013731479177 -4.282736022833446
O -3.877938984177888 -1.9020162853481772 8.080134602665092
H -4.532196841900343 -2.38107914080764 7.549651056240275
H -4.369048341344018 -1.6339369050480834 8.87127744024993
O -8.494958440047482 5.6501211083863625 12.619822788523352
H -9.129494592444354 6.251989846420489 12.202587542674463
H -9.048378540187624 5.058073826199468 13.151017811764332
O -7.5834236496044065 -9.116247048531575 -7.858684544418823
H -6.802700749811419 -9.322822615942467 -8.394189582292135
H -8.257011010605279 -9.73510574836915 -8.178459341792262
O -3.5823837140838157 -1.6067482007554423 13.10841488669272
H -4.029773140139142 -2.363428494650649 12.700683368185075
H -4.231478046328586 -0.8899360952614168 13.04661765726505
O 4.9409601805438195 6.744955838091135 5.595929351830138
H 5.863422532810136 6.804169723881236 5.886659950978098
H 4.453559257483647 7.258148438907227 6.257771960739315
C 3.691029304266251 -2.8343161126327705 -9.51763702999774
O 4.19427153361742 -1.936549428148652 -10.128849346732325
O 3.1877870749150823 -3.7320827971168886 -8.906424713263155
C -0.48462487254548314 0.1275259607101356 -14.168363386714239
O -0.09642451741158165 -1.0126285826623025 -14.371152933045158
O 0.20559829202717783 1.0437938869125063 -13.707194724942747
O -1.6277899119930546 0.5415187898734602 -14.39293412030653


