%nprocshared=1
%mem=1GB
#p opt=(calcfc,cartesian,maxcycles=5000) iop(1/152=5000) pm6

Title

0 1
C -5.0710522388059704 1.0783507462686561 0.47044029850746183
C -3.8153522388059704 0.1782507462686569 0.19534029850746193
C -4.11845223880597 -1.3219492537313435 0.5608402985074619
C -2.96945223880597 -2.3874492537313436 0.7034402985074619
C -2.52015223880597 0.7359507462686565 0.7384402985074618
C -2.20305223880597 0.7852507462686571 2.097440298507462
C -1.5755522388059702 1.205650746268656 -0.18965970149253808
C -0.9533522388059701 1.2695507462686564 2.508640298507462
H -2.91125223880597 0.4298507462686567 2.840840298507462
C -0.32655223880597006 1.6562507462686575 0.21554029850746192
H -1.7850522388059702 1.178550746268657 -1.2573597014925382
C 0.004447761194029898 1.6956507462686563 1.569740298507462
H -0.7158522388059702 1.2676507462686573 3.5705402985074617
H 0.3943477611940298 1.9193507462686572 -0.5551597014925382
C -1.76045223880597 -2.1592492537313435 -0.1734597014925381
C -0.5287522388059701 -1.936549253731343 0.464840298507462
C -1.8068522388059702 -2.121249253731343 -1.5681597014925381
C 0.6114477611940299 -1.614449253731343 -0.2582597014925381
H -0.4544522388059702 -1.954049253731343 1.5506402985074619
C -0.6479522388059701 -1.8270492537313432 -2.2998597014925384
H -2.74345223880597 -2.290549253731343 -2.092259701492538
C 0.5698477611940298 -1.5506492537313434 -1.6506597014925382
H 1.5072477611940298 -1.351949253731343 0.2991402985074618
H -0.7173522388059701 -1.7640492537313435 -3.3840597014925375
C 1.7791477611940298 -1.082849253731343 -2.4255597014925376
H 1.4739477611940297 -0.9102492537313429 -3.464259701492538
H 2.1252477611940295 -0.1337492537313434 -2.0010597014925384
C 1.3965477611940298 2.0964507462686566 1.997440298507462
H 1.51704776119403 1.8448507462686567 3.057640298507462
H 2.1256477611940294 1.5207507462686571 1.4165402985074618
C 3.94864776119403 -1.4275492537313434 -3.522959701492538
H 4.81734776119403 -2.087049253731343 -3.615159701492538
H 3.4305477611940303 -1.3641492537313429 -4.484459701492538
H 4.26984776119403 -0.441449253731343 -3.176459701492538
C 2.60904776119403 -3.4296492537313434 -2.8992597014925376
H 1.9825477611940296 -3.869549253731343 -2.119359701492538
H 2.06294776119403 -3.373349253731343 -3.845759701492538
H 3.5215477611940305 -4.019849253731343 -3.0234597014925377
C 3.7281477611940304 -2.060049253731343 -1.156659701492538
H 3.9048477611940298 -1.032549253731343 -0.8295597014925382
H 3.12924776119403 -2.623249253731343 -0.4404597014925382
H 4.68244776119403 -2.5769492537313434 -1.3005597014925383
C 3.1110477611940297 3.755250746268656 2.588740298507462
H 3.40124776119403 4.809350746268656 2.534540298507462
H 2.9823477611940303 3.461750746268656 3.634840298507462
H 3.86514776119403 3.1392507462686563 2.091540298507462
C 1.99744776119403 3.9574507462686572 0.40494029850746194
H 2.67914776119403 3.230350746268657 -0.04295970149253803
H 1.03214776119403 3.981150746268657 -0.10175970149253821
H 2.4399477611940297 4.958250746268657 0.368240298507462
C 0.7418477611940297 4.4992507462686575 2.475440298507462
H -0.18475223880597014 4.424250746268656 1.901240298507462
H 0.57844776119403 4.189650746268656 3.511940298507462
H 1.1210477611940297 5.524350746268658 2.4432402985074617
N 3.00114776119403 -2.025349253731343 -2.490159701492538
N 1.7831477611940298 3.586450746268657 1.862540298507462
C -3.55075223880597 -3.8435492537313434 0.6444402985074619
H -2.62515223880597 -2.2736492537313433 1.7424402985074618
H -4.67195223880597 -1.3478492537313436 1.5102402985074619
H -4.83415223880597 -1.6757492537313432 -0.1945597014925382
H -3.7169522388059697 0.17335074626865676 -0.900559701492538
H -3.9132522388059705 -4.043149253731343 -0.34225970149253815
H -4.35435223880597 -3.9354492537313432 1.3449402985074619
H -2.78115223880597 -4.545049253731343 0.8904402985074619
H -5.24235223880597 1.138950746268657 1.5249402985074618
H -5.92805223880597 0.6501507462686567 -0.006059701492538094
H -4.89895223880597 2.059650746268657 0.08004029850746197
O -6.860154717010526 -4.286330106522865 8.034660026792455
H -7.616058437920004 -4.197456060225284 7.434928148775367
H -6.0961781168741345 -4.343939690008518 7.4413786141098655
O 3.913787561841363 -4.3993166037790505 5.063005833028887
H 3.865260346206104 -4.711160390717549 5.979174987055886
H 3.6761840298927697 -3.461752074237329 5.121991075681296
O -3.4365779945034953 -5.568267652262569 8.213679244933159
H -3.6711716324789228 -6.345450013592876 7.684603863575736
H -4.22734535707186 -5.401762221174 8.748398670440295
O -0.2909510557046076 0.7877363001532688 8.465435950597007
H -0.7721136873955461 1.5403862365988537 8.089978959807505
H -0.9229865308306233 0.05524561183476984 8.411117500610628
O -1.3830924917425895 7.621091242367874 1.2707815592646194
H -1.3775793630414563 7.612222494435809 2.239728568972603
H -1.461127472750709 6.686094652156381 1.0285959644577791
O 3.8633842470876845 -2.6738410208668144 -11.532911858615641
H 3.900511482482906 -2.82090708445023 -12.489970110883489
H 3.55733830893508 -3.5217714301170595 -11.177508075421084
O 3.7118940846638955 3.511542100736255 8.9329021087917
H 3.7401197660170755 3.1755915323262256 8.024437534139981
H 2.9561005399435207 3.052285137481364 9.328908552881826
O 1.2853817767787328 10.740494739968048 -0.768109268162281
H 1.2854959701314594 10.692997555140687 -1.735947767754726
H 0.47201622844647284 11.223264325677876 -0.5575577158058023
O -5.11444401518866 6.559942715894344 -5.867589625556983
H -5.070566076088447 5.827097514717359 -6.5000293416344785
H -5.567153427480635 6.179743935624944 -5.099823372193425
O -3.6615777760849433 -1.3170103962523259 -6.11628690906258
H -3.8172057610998062 -1.251386840269383 -7.070457143392057
H -3.1132725497708313 -2.1104485810830518 -6.02258968418824
C -0.7748265369971993 -0.181507864580456 -14.60463027178882
O 0.3837478908198204 0.08804163767153508 -14.73829634206909
O -1.9334009648142185 -0.451057366832447 -14.470964201508549
C 4.549314053529265 -6.216875653340729 -5.868027324574538
O 4.695345369940571 -6.736691220200046 -4.772471698566481
O 4.909310136955594 -5.072589560785268 -6.167432772757867
O 4.018931095949849 -6.754683768669133 -6.8468555698741005


