%nprocshared=1
%mem=1GB
#p opt=(calcfc,cartesian,maxcycles=5000) iop(1/152=5000) pm6

Title

0 1
C -5.0710522388059704 1.0783507462686561 0.47044029850746183
C -3.8153522388059704 0.1782507462686569 0.19534029850746193
C -4.11845223880597 -1.3219492537313435 0.5608402985074619
C -2.96945223880597 -2.3874492537313436 0.7034402985074619
C -2.52015223880597 0.7359507462686565 0.7384402985074618
C -2.20305223880597 0.7852507462686571 2.097440298507462
C -1.5755522388059702 1.205650746268656 -0.18965970149253808
C -0.9533522388059701 1.2695507462686564 2.508640298507462
H -2.91125223880597 0.4298507462686567 2.840840298507462
C -0.32655223880597006 1.6562507462686575 0.21554029850746192
H -1.7850522388059702 1.178550746268657 -1.2573597014925382
C 0.004447761194029898 1.6956507462686563 1.569740298507462
H -0.7158522388059702 1.2676507462686573 3.5705402985074617
H 0.3943477611940298 1.9193507462686572 -0.5551597014925382
C -1.76045223880597 -2.1592492537313435 -0.1734597014925381
C -0.5287522388059701 -1.936549253731343 0.464840298507462
C -1.8068522388059702 -2.121249253731343 -1.5681597014925381
C 0.6114477611940299 -1.614449253731343 -0.2582597014925381
H -0.4544522388059702 -1.954049253731343 1.5506402985074619
C -0.6479522388059701 -1.8270492537313432 -2.2998597014925384
H -2.74345223880597 -2.290549253731343 -2.092259701492538
C 0.5698477611940298 -1.5506492537313434 -1.6506597014925382
H 1.5072477611940298 -1.351949253731343 0.2991402985074618
H -0.7173522388059701 -1.7640492537313435 -3.3840597014925375
C 1.7791477611940298 -1.082849253731343 -2.4255597014925376
H 1.4739477611940297 -0.9102492537313429 -3.464259701492538
H 2.1252477611940295 -0.1337492537313434 -2.0010597014925384
C 1.3965477611940298 2.0964507462686566 1.997440298507462
H 1.51704776119403 1.8448507462686567 3.057640298507462
H 2.1256477611940294 1.5207507462686571 1.4165402985074618
C 3.94864776119403 -1.4275492537313434 -3.522959701492538
H 4.81734776119403 -2.087049253731343 -3.615159701492538
H 3.4305477611940303 -1.3641492537313429 -4.484459701492538
H 4.26984776119403 -0.441449253731343 -3.176459701492538
C 2.60904776119403 -3.4296492537313434 -2.8992597014925376
H 1.9825477611940296 -3.869549253731343 -2.119359701492538
H 2.06294776119403 -3.373349253731343 -3.845759701492538
H 3.5215477611940305 -4.019849253731343 -3.0234597014925377
C 3.7281477611940304 -2.060049253731343 -1.156659701492538
H 3.9048477611940298 -1.032549253731343 -0.8295597014925382
H 3.12924776119403 -2.623249253731343 -0.4404597014925382
H 4.68244776119403 -2.5769492537313434 -1.3005597014925383
C 3.1110477611940297 3.755250746268656 2.588740298507462
H 3.40124776119403 4.809350746268656 2.534540298507462
H 2.9823477611940303 3.461750746268656 3.634840298507462
H 3.86514776119403 3.1392507462686563 2.091540298507462
C 1.99744776119403 3.9574507462686572 0.40494029850746194
H 2.67914776119403 3.230350746268657 -0.04295970149253803
H 1.03214776119403 3.981150746268657 -0.10175970149253821
H 2.4399477611940297 4.958250746268657 0.368240298507462
C 0.7418477611940297 4.4992507462686575 2.475440298507462
H -0.18475223880597014 4.424250746268656 1.901240298507462
H 0.57844776119403 4.189650746268656 3.511940298507462
H 1.1210477611940297 5.524350746268658 2.4432402985074617
N 3.00114776119403 -2.025349253731343 -2.490159701492538
N 1.7831477611940298 3.586450746268657 1.862540298507462
C -3.55075223880597 -3.8435492537313434 0.6444402985074619
H -2.62515223880597 -2.2736492537313433 1.7424402985074618
H -4.67195223880597 -1.3478492537313436 1.5102402985074619
H -4.83415223880597 -1.6757492537313432 -0.1945597014925382
H -3.7169522388059697 0.17335074626865676 -0.900559701492538
H -3.9132522388059705 -4.043149253731343 -0.34225970149253815
H -4.35435223880597 -3.9354492537313432 1.3449402985074619
H -2.78115223880597 -4.545049253731343 0.8904402985074619
H -5.24235223880597 1.138950746268657 1.5249402985074618
H -5.92805223880597 0.6501507462686567 -0.006059701492538094
H -4.89895223880597 2.059650746268657 0.08004029850746197
O -5.275607142735165 0.35759953149999596 10.247132270410901
H -5.438596970215072 0.1952890682980434 9.305826269913062
H -4.4722013263774185 -0.14998791512695298 10.43648913606218
O 2.3123921893904003 8.463960930665081 -2.918177268334374
H 2.559439060414057 8.164422700325023 -2.0303641973660715
H 2.0808668504003514 9.396733023900286 -2.7945076124475783
O 4.185693711311297 3.2751894513573254 5.551110977672541
H 3.9658460461602214 2.3636996667961276 5.795693752348524
H 5.049077515683002 3.4266042921992126 5.964153223237647
O 1.7460489862563426 4.7012801700142095 -1.8973098138896285
H 1.6460781037627217 4.374245186829138 -2.803963716614691
H 1.534809726436091 5.644612099051651 -1.9641289059898068
O -7.327601702294007 -8.698829558759751 8.635807895313366
H -7.867237679805201 -8.696317305161873 9.440639590301455
H -7.954044268631552 -8.46870042847428 7.933260929784026
O -8.766184794324026 0.649259575387835 13.854278351990539
H -7.980685119150026 0.9626500550876068 13.381262470190478
H -8.956804737636523 1.3581125970361803 14.486855126154396
O -2.1822902746903945 6.006324535156765 -3.8897833797320662
H -2.2212589803894267 5.168076324138358 -4.374333411824297
H -1.2333411944509773 6.173808198746656 -3.7877696069203917
O -0.39058101519825983 9.03939835534458 0.3557267992678258
H -1.0637243111912182 9.730698345481134 0.44488835823209216
H -0.13605166655501355 8.841308474855133 1.2694757550685536
O 1.4257365911368787 -3.0043276998068533 4.314540278284138
H 1.5102371717195553 -2.0407001027072194 4.2575414810233445
H 2.3347978735774015 -3.3252048244943646 4.21652293328915
O 5.334624887024264 -13.208285971214819 5.250583245742619
H 5.5467444505009 -14.138720656138759 5.0824644044993725
H 5.125086633744022 -13.183180511636696 6.196323897619038
C 10.55149156878772 5.583905024769335 10.606360484502002
O 10.006345878774916 5.155799750709215 9.630470988563873
O 11.096637258800524 6.012010298829455 11.58224998044013
C 8.363779498616632 5.614952179568209 -9.075084943101528
O 8.43581801781213 5.1701914507107425 -7.939843187166567
O 9.152057142361334 6.426479108819296 -9.573757043356395
O 7.491439955180987 5.322337777778058 -9.900947472354119


