%nprocshared=1
%mem=1GB
#p opt=(calcfc,cartesian,maxcycles=5000) iop(1/152=5000) pm6

Title

0 1
C -5.0710522388059704 1.0783507462686561 0.47044029850746183
C -3.8153522388059704 0.1782507462686569 0.19534029850746193
C -4.11845223880597 -1.3219492537313435 0.5608402985074619
C -2.96945223880597 -2.3874492537313436 0.7034402985074619
C -2.52015223880597 0.7359507462686565 0.7384402985074618
C -2.20305223880597 0.7852507462686571 2.097440298507462
C -1.5755522388059702 1.205650746268656 -0.18965970149253808
C -0.9533522388059701 1.2695507462686564 2.508640298507462
H -2.91125223880597 0.4298507462686567 2.840840298507462
C -0.32655223880597006 1.6562507462686575 0.21554029850746192
H -1.7850522388059702 1.178550746268657 -1.2573597014925382
C 0.004447761194029898 1.6956507462686563 1.569740298507462
H -0.7158522388059702 1.2676507462686573 3.5705402985074617
H 0.3943477611940298 1.9193507462686572 -0.5551597014925382
C -1.76045223880597 -2.1592492537313435 -0.1734597014925381
C -0.5287522388059701 -1.936549253731343 0.464840298507462
C -1.8068522388059702 -2.121249253731343 -1.5681597014925381
C 0.6114477611940299 -1.614449253731343 -0.2582597014925381
H -0.4544522388059702 -1.954049253731343 1.5506402985074619
C -0.6479522388059701 -1.8270492537313432 -2.2998597014925384
H -2.74345223880597 -2.290549253731343 -2.092259701492538
C 0.5698477611940298 -1.5506492537313434 -1.6506597014925382
H 1.5072477611940298 -1.351949253731343 0.2991402985074618
H -0.7173522388059701 -1.7640492537313435 -3.3840597014925375
C 1.7791477611940298 -1.082849253731343 -2.4255597014925376
H 1.4739477611940297 -0.9102492537313429 -3.464259701492538
H 2.1252477611940295 -0.1337492537313434 -2.0010597014925384
C 1.3965477611940298 2.0964507462686566 1.997440298507462
H 1.51704776119403 1.8448507462686567 3.057640298507462
H 2.1256477611940294 1.5207507462686571 1.4165402985074618
C 3.94864776119403 -1.4275492537313434 -3.522959701492538
H 4.81734776119403 -2.087049253731343 -3.615159701492538
H 3.4305477611940303 -1.3641492537313429 -4.484459701492538
H 4.26984776119403 -0.441449253731343 -3.176459701492538
C 2.60904776119403 -3.4296492537313434 -2.8992597014925376
H 1.9825477611940296 -3.869549253731343 -2.119359701492538
H 2.06294776119403 -3.373349253731343 -3.845759701492538
H 3.5215477611940305 -4.019849253731343 -3.0234597014925377
C 3.7281477611940304 -2.060049253731343 -1.156659701492538
H 3.9048477611940298 -1.032549253731343 -0.8295597014925382
H 3.12924776119403 -2.623249253731343 -0.4404597014925382
H 4.68244776119403 -2.5769492537313434 -1.3005597014925383
C 3.1110477611940297 3.755250746268656 2.588740298507462
H 3.40124776119403 4.809350746268656 2.534540298507462
H 2.9823477611940303 3.461750746268656 3.634840298507462
H 3.86514776119403 3.1392507462686563 2.091540298507462
C 1.99744776119403 3.9574507462686572 0.40494029850746194
H 2.67914776119403 3.230350746268657 -0.04295970149253803
H 1.03214776119403 3.981150746268657 -0.10175970149253821
H 2.4399477611940297 4.958250746268657 0.368240298507462
C 0.7418477611940297 4.4992507462686575 2.475440298507462
H -0.18475223880597014 4.424250746268656 1.901240298507462
H 0.57844776119403 4.189650746268656 3.511940298507462
H 1.1210477611940297 5.524350746268658 2.4432402985074617
N 3.00114776119403 -2.025349253731343 -2.490159701492538
N 1.7831477611940298 3.586450746268657 1.862540298507462
C -3.55075223880597 -3.8435492537313434 0.6444402985074619
H -2.62515223880597 -2.2736492537313433 1.7424402985074618
H -4.67195223880597 -1.3478492537313436 1.5102402985074619
H -4.83415223880597 -1.6757492537313432 -0.1945597014925382
H -3.7169522388059697 0.17335074626865676 -0.900559701492538
H -3.9132522388059705 -4.043149253731343 -0.34225970149253815
H -4.35435223880597 -3.9354492537313432 1.3449402985074619
H -2.78115223880597 -4.545049253731343 0.8904402985074619
H -5.24235223880597 1.138950746268657 1.5249402985074618
H -5.92805223880597 0.6501507462686567 -0.006059701492538094
H -4.89895223880597 2.059650746268657 0.08004029850746197
O 3.1382509859446617 -0.5537050887269122 4.255248048742498
H 3.4795581028592104 -1.0850997125552657 3.52033542631055
H 2.2600176791743034 -0.2754806754035693 3.9548160614141135
O -7.726698778257185 -0.5510663534665747 -9.880678186088485
H -8.254960254992286 -0.6772814258601697 -10.683159914602182
H -8.186669888662452 0.1580281402408214 -9.406786298748772
O 11.478364798256116 -8.643688808332763 -11.705470484788249
H 11.37516103835561 -8.31554011694004 -12.611359427859995
H 10.56986852583129 -8.70636659596992 -11.374308949843284
O -1.448091946659751 -6.265651391764564 -2.4322737279905526
H -0.6633214346768156 -6.55676611909577 -1.9440577758209003
H -1.2583711064433747 -6.513557569019077 -3.3496125281983304
O -0.9002167449600087 0.41428160187773394 9.016645350448307
H -0.645988709838255 -0.49336328716696687 8.791887217226913
H -0.10332032267535085 0.9333533392515769 8.830950525777258
O 4.271961684833306 -3.4863787879024306 5.015998561513642
H 4.807595932943895 -2.9151518053428753 4.445242007852705
H 3.3634612774545025 -3.3296638379017143 4.717620649229874
O 8.516499642710178 -7.323411683139644 -10.328862380629916
H 8.502583404306392 -7.680842206004111 -9.428297493165651
H 9.24282566472226 -6.682147756909584 -10.314968822262395
O -3.0345040520611737 5.325781495337598 -3.6212253975565467
H -3.2500537772000304 5.174218868910353 -4.553713704809265
H -3.3703635996681753 4.535651929237531 -3.1719419932828754
O -0.6133530660920262 6.979057625601778 -2.245332132682423
H -0.79606845545907 6.509402092270278 -1.4176811655473895
H -1.469160785765201 7.361096728525449 -2.4915052731447345
O 2.0559574124012423 -2.7626501457577617 -7.794790447007648
H 1.2992152206125964 -2.161904977373385 -7.868369348397545
H 2.163753637178109 -2.887446966718633 -6.839925183369937
C 2.7671934505584996 -13.712470335945685 -2.769390036059755
O 2.214162259229449 -14.658336313335331 -3.2513779109424137
O 3.3202246418875503 -12.76660435855604 -2.2874021611770967
C -4.737634579582066 -6.194845710645989 4.89136204974604
O -5.126687193162793 -5.946590499799035 6.022194890069197
O -4.93586038934972 -7.254645772073639 4.286248984079872
O -4.085479429572679 -5.424682171129557 4.177086075688564


