%nprocshared=1
%mem=1GB
#p opt=(calcfc,cartesian,maxcycles=5000) iop(1/152=5000) pm6

Title

0 1
C -5.0710522388059704 1.0783507462686561 0.47044029850746183
C -3.8153522388059704 0.1782507462686569 0.19534029850746193
C -4.11845223880597 -1.3219492537313435 0.5608402985074619
C -2.96945223880597 -2.3874492537313436 0.7034402985074619
C -2.52015223880597 0.7359507462686565 0.7384402985074618
C -2.20305223880597 0.7852507462686571 2.097440298507462
C -1.5755522388059702 1.205650746268656 -0.18965970149253808
C -0.9533522388059701 1.2695507462686564 2.508640298507462
H -2.91125223880597 0.4298507462686567 2.840840298507462
C -0.32655223880597006 1.6562507462686575 0.21554029850746192
H -1.7850522388059702 1.178550746268657 -1.2573597014925382
C 0.004447761194029898 1.6956507462686563 1.569740298507462
H -0.7158522388059702 1.2676507462686573 3.5705402985074617
H 0.3943477611940298 1.9193507462686572 -0.5551597014925382
C -1.76045223880597 -2.1592492537313435 -0.1734597014925381
C -0.5287522388059701 -1.936549253731343 0.464840298507462
C -1.8068522388059702 -2.121249253731343 -1.5681597014925381
C 0.6114477611940299 -1.614449253731343 -0.2582597014925381
H -0.4544522388059702 -1.954049253731343 1.5506402985074619
C -0.6479522388059701 -1.8270492537313432 -2.2998597014925384
H -2.74345223880597 -2.290549253731343 -2.092259701492538
C 0.5698477611940298 -1.5506492537313434 -1.6506597014925382
H 1.5072477611940298 -1.351949253731343 0.2991402985074618
H -0.7173522388059701 -1.7640492537313435 -3.3840597014925375
C 1.7791477611940298 -1.082849253731343 -2.4255597014925376
H 1.4739477611940297 -0.9102492537313429 -3.464259701492538
H 2.1252477611940295 -0.1337492537313434 -2.0010597014925384
C 1.3965477611940298 2.0964507462686566 1.997440298507462
H 1.51704776119403 1.8448507462686567 3.057640298507462
H 2.1256477611940294 1.5207507462686571 1.4165402985074618
C 3.94864776119403 -1.4275492537313434 -3.522959701492538
H 4.81734776119403 -2.087049253731343 -3.615159701492538
H 3.4305477611940303 -1.3641492537313429 -4.484459701492538
H 4.26984776119403 -0.441449253731343 -3.176459701492538
C 2.60904776119403 -3.4296492537313434 -2.8992597014925376
H 1.9825477611940296 -3.869549253731343 -2.119359701492538
H 2.06294776119403 -3.373349253731343 -3.845759701492538
H 3.5215477611940305 -4.019849253731343 -3.0234597014925377
C 3.7281477611940304 -2.060049253731343 -1.156659701492538
H 3.9048477611940298 -1.032549253731343 -0.8295597014925382
H 3.12924776119403 -2.623249253731343 -0.4404597014925382
H 4.68244776119403 -2.5769492537313434 -1.3005597014925383
C 3.1110477611940297 3.755250746268656 2.588740298507462
H 3.40124776119403 4.809350746268656 2.534540298507462
H 2.9823477611940303 3.461750746268656 3.634840298507462
H 3.86514776119403 3.1392507462686563 2.091540298507462
C 1.99744776119403 3.9574507462686572 0.40494029850746194
H 2.67914776119403 3.230350746268657 -0.04295970149253803
H 1.03214776119403 3.981150746268657 -0.10175970149253821
H 2.4399477611940297 4.958250746268657 0.368240298507462
C 0.7418477611940297 4.4992507462686575 2.475440298507462
H -0.18475223880597014 4.424250746268656 1.901240298507462
H 0.57844776119403 4.189650746268656 3.511940298507462
H 1.1210477611940297 5.524350746268658 2.4432402985074617
N 3.00114776119403 -2.025349253731343 -2.490159701492538
N 1.7831477611940298 3.586450746268657 1.862540298507462
C -3.55075223880597 -3.8435492537313434 0.6444402985074619
H -2.62515223880597 -2.2736492537313433 1.7424402985074618
H -4.67195223880597 -1.3478492537313436 1.5102402985074619
H -4.83415223880597 -1.6757492537313432 -0.1945597014925382
H -3.7169522388059697 0.17335074626865676 -0.900559701492538
H -3.9132522388059705 -4.043149253731343 -0.34225970149253815
H -4.35435223880597 -3.9354492537313432 1.3449402985074619
H -2.78115223880597 -4.545049253731343 0.8904402985074619
H -5.24235223880597 1.138950746268657 1.5249402985074618
H -5.92805223880597 0.6501507462686567 -0.006059701492538094
H -4.89895223880597 2.059650746268657 0.08004029850746197
O -5.205857880656114 4.003523877358676 5.486651246060128
H -5.957467962798833 3.393744480347221 5.439547867181732
H -4.724961988495083 3.7214944236093603 6.279216998802768
O 1.0437262539930596 9.698420858930525 1.1237327781772741
H 1.0951919577545113 9.548825725335647 2.079734835832523
H 1.9083431585337072 10.073569915938505 0.8986489322252109
O -5.347419680642672 -0.7856662226166488 -13.118827377851323
H -6.162180810929315 -0.5478965867087076 -12.651283521390521
H -4.823882224790951 0.02963196494489495 -13.10620430456595
O 2.5031664589518625 5.905442221868968 -2.6409071786225535
H 1.7302604424270533 5.897511983373693 -2.0565094049810373
H 2.275053836778371 6.555992166916396 -3.321870720160514
O -11.661437632053952 4.1309257977653795 -11.987045936168105
H -11.698709332961284 3.6885436453834637 -12.848368296533502
H -12.4479772605133 4.696852109402307 -11.980355124554027
O 5.24501067914937 -0.5098060605103467 7.897426148543598
H 5.645646400693025 0.16510677417157393 7.329138333167612
H 5.18864841962439 -0.08189035139037437 8.764993659397703
O 5.198877305205421 6.876775267068253 -6.427743529493952
H 4.968845743207909 6.991178478567227 -5.493417706997482
H 4.692819854047864 7.56853301109659 -6.8797822712017185
O 9.009487450600629 -0.09865796756684989 10.096767016609125
H 9.482827196000105 -0.6360619740998577 9.443993107749838
H 9.692490384780575 0.48608742099158364 10.4580726583603
O 0.7022505672116004 -10.162799898738976 -0.7244809616304835
H 1.3752896332266524 -9.469573336101565 -0.6508419409179071
H -0.1292039145030227 -9.673240695293606 -0.8137959965271926
O -1.3077872486680082 -0.7086937832372664 -5.495441637185005
H -0.6902904700844612 0.03807552155157523 -5.4946105149719005
H -0.844658184162988 -1.3948026386854036 -5.999155893868644
C -3.043208215826976 5.343315420001264 -4.454085731304621
O -2.87893966294386 5.413646763028705 -5.637676708805567
O -3.2074767687100922 5.272984076973822 -3.270494753803676
C -1.894764681564281 -0.41967462307763875 -8.833652144075732
O -1.0326226933175067 -0.49895191854125576 -9.695163491143123
O -1.682020743809311 -0.30019429107764684 -7.6215894677616385
O -3.113414487115353 -0.44665996566992655 -9.040564751510635


