%nprocshared=1
%mem=1GB
#p opt=(calcfc,cartesian,maxcycles=5000) iop(1/152=5000) pm6

Title

0 1
C -5.0710522388059704 1.0783507462686561 0.47044029850746183
C -3.8153522388059704 0.1782507462686569 0.19534029850746193
C -4.11845223880597 -1.3219492537313435 0.5608402985074619
C -2.96945223880597 -2.3874492537313436 0.7034402985074619
C -2.52015223880597 0.7359507462686565 0.7384402985074618
C -2.20305223880597 0.7852507462686571 2.097440298507462
C -1.5755522388059702 1.205650746268656 -0.18965970149253808
C -0.9533522388059701 1.2695507462686564 2.508640298507462
H -2.91125223880597 0.4298507462686567 2.840840298507462
C -0.32655223880597006 1.6562507462686575 0.21554029850746192
H -1.7850522388059702 1.178550746268657 -1.2573597014925382
C 0.004447761194029898 1.6956507462686563 1.569740298507462
H -0.7158522388059702 1.2676507462686573 3.5705402985074617
H 0.3943477611940298 1.9193507462686572 -0.5551597014925382
C -1.76045223880597 -2.1592492537313435 -0.1734597014925381
C -0.5287522388059701 -1.936549253731343 0.464840298507462
C -1.8068522388059702 -2.121249253731343 -1.5681597014925381
C 0.6114477611940299 -1.614449253731343 -0.2582597014925381
H -0.4544522388059702 -1.954049253731343 1.5506402985074619
C -0.6479522388059701 -1.8270492537313432 -2.2998597014925384
H -2.74345223880597 -2.290549253731343 -2.092259701492538
C 0.5698477611940298 -1.5506492537313434 -1.6506597014925382
H 1.5072477611940298 -1.351949253731343 0.2991402985074618
H -0.7173522388059701 -1.7640492537313435 -3.3840597014925375
C 1.7791477611940298 -1.082849253731343 -2.4255597014925376
H 1.4739477611940297 -0.9102492537313429 -3.464259701492538
H 2.1252477611940295 -0.1337492537313434 -2.0010597014925384
C 1.3965477611940298 2.0964507462686566 1.997440298507462
H 1.51704776119403 1.8448507462686567 3.057640298507462
H 2.1256477611940294 1.5207507462686571 1.4165402985074618
C 3.94864776119403 -1.4275492537313434 -3.522959701492538
H 4.81734776119403 -2.087049253731343 -3.615159701492538
H 3.4305477611940303 -1.3641492537313429 -4.484459701492538
H 4.26984776119403 -0.441449253731343 -3.176459701492538
C 2.60904776119403 -3.4296492537313434 -2.8992597014925376
H 1.9825477611940296 -3.869549253731343 -2.119359701492538
H 2.06294776119403 -3.373349253731343 -3.845759701492538
H 3.5215477611940305 -4.019849253731343 -3.0234597014925377
C 3.7281477611940304 -2.060049253731343 -1.156659701492538
H 3.9048477611940298 -1.032549253731343 -0.8295597014925382
H 3.12924776119403 -2.623249253731343 -0.4404597014925382
H 4.68244776119403 -2.5769492537313434 -1.3005597014925383
C 3.1110477611940297 3.755250746268656 2.588740298507462
H 3.40124776119403 4.809350746268656 2.534540298507462
H 2.9823477611940303 3.461750746268656 3.634840298507462
H 3.86514776119403 3.1392507462686563 2.091540298507462
C 1.99744776119403 3.9574507462686572 0.40494029850746194
H 2.67914776119403 3.230350746268657 -0.04295970149253803
H 1.03214776119403 3.981150746268657 -0.10175970149253821
H 2.4399477611940297 4.958250746268657 0.368240298507462
C 0.7418477611940297 4.4992507462686575 2.475440298507462
H -0.18475223880597014 4.424250746268656 1.901240298507462
H 0.57844776119403 4.189650746268656 3.511940298507462
H 1.1210477611940297 5.524350746268658 2.4432402985074617
N 3.00114776119403 -2.025349253731343 -2.490159701492538
N 1.7831477611940298 3.586450746268657 1.862540298507462
C -3.55075223880597 -3.8435492537313434 0.6444402985074619
H -2.62515223880597 -2.2736492537313433 1.7424402985074618
H -4.67195223880597 -1.3478492537313436 1.5102402985074619
H -4.83415223880597 -1.6757492537313432 -0.1945597014925382
H -3.7169522388059697 0.17335074626865676 -0.900559701492538
H -3.9132522388059705 -4.043149253731343 -0.34225970149253815
H -4.35435223880597 -3.9354492537313432 1.3449402985074619
H -2.78115223880597 -4.545049253731343 0.8904402985074619
H -5.24235223880597 1.138950746268657 1.5249402985074618
H -5.92805223880597 0.6501507462686567 -0.006059701492538094
H -4.89895223880597 2.059650746268657 0.08004029850746197
O -8.211422689393629 1.146891393852824 10.062825816283011
H -7.300700325587491 0.8868529483907752 9.858052429718633
H -8.721255982937825 0.33250191936266277 9.937120840512295
O 4.8559982462439315 -1.1882660781095424 9.756288105658749
H 5.001177071345793 -1.396064700601183 8.821028677407623
H 5.383108914218542 -1.8506862912088455 10.227791816444606
O 2.4064100975622154 -1.0931900478425651 2.4448690110861557
H 2.8948519413341463 -1.8992780830058056 2.2198934530374106
H 1.6322701364964636 -1.416287143569686 2.9299231644688626
O 2.2549538604315678 1.3084777645054189 -4.877737246761485
H 2.679455174206695 1.9542438007278842 -4.2931414736287
H 1.3620714641875873 1.661813451089788 -5.007648229220857
O -2.8718078326579177 -0.7075007589960866 6.350680457289459
H -3.2785525220027294 -0.8191632751560101 7.22306660864368
H -1.9537925184974363 -0.9881328965676306 6.482799459060053
O -6.207656109843607 -11.946292635817493 -6.837910399014266
H -5.602080389905463 -12.698327928330722 -6.9196925678284025
H -5.896329784462692 -11.479954724302452 -6.047615001261878
O -2.797673691528401 9.48096292985919 4.739932528101555
H -3.4128857566827375 9.12704184123543 4.080219458035553
H -2.9439077342690316 10.438282442657362 4.706512482326562
O 3.929776098825068 1.0606438497447226 9.959240904029496
H 4.109015619910422 0.9224247570054848 9.017043454774068
H 2.9763954076411863 0.9078628257700905 10.04100373599492
O 8.080532225055986 -2.7248025488455827 -8.131378493993385
H 7.552363566860535 -2.431018231095311 -8.888805718249303
H 8.23735764422398 -3.66495697742124 -8.30595622061497
O -9.358885007877813 -11.454163323265753 -9.110946375239324
H -8.8749878233042 -11.466685403051224 -9.950383132344696
H -8.7862750189825 -11.945992338970422 -8.503341269740462
C 1.4454152149729282 -1.1304022447502533 10.240288657875048
O 1.198265309385189 -0.9760698216647483 9.079290516337979
O 1.6925651205606675 -1.2847346678357583 11.401286799412118
C 7.126030308600537 5.124867372945856 9.800403272610943
O 6.224905819093214 5.516888262992835 10.525709948974079
O 7.140197865132929 5.218315755271372 8.567642896754123
O 8.163248210153503 4.574027888934953 10.186930466935822


