%nprocshared=1
%mem=1GB
#p opt=(calcfc,cartesian,maxcycles=5000) iop(1/152=5000) pm6

Title

0 1
C -5.0710522388059704 1.0783507462686561 0.47044029850746183
C -3.8153522388059704 0.1782507462686569 0.19534029850746193
C -4.11845223880597 -1.3219492537313435 0.5608402985074619
C -2.96945223880597 -2.3874492537313436 0.7034402985074619
C -2.52015223880597 0.7359507462686565 0.7384402985074618
C -2.20305223880597 0.7852507462686571 2.097440298507462
C -1.5755522388059702 1.205650746268656 -0.18965970149253808
C -0.9533522388059701 1.2695507462686564 2.508640298507462
H -2.91125223880597 0.4298507462686567 2.840840298507462
C -0.32655223880597006 1.6562507462686575 0.21554029850746192
H -1.7850522388059702 1.178550746268657 -1.2573597014925382
C 0.004447761194029898 1.6956507462686563 1.569740298507462
H -0.7158522388059702 1.2676507462686573 3.5705402985074617
H 0.3943477611940298 1.9193507462686572 -0.5551597014925382
C -1.76045223880597 -2.1592492537313435 -0.1734597014925381
C -0.5287522388059701 -1.936549253731343 0.464840298507462
C -1.8068522388059702 -2.121249253731343 -1.5681597014925381
C 0.6114477611940299 -1.614449253731343 -0.2582597014925381
H -0.4544522388059702 -1.954049253731343 1.5506402985074619
C -0.6479522388059701 -1.8270492537313432 -2.2998597014925384
H -2.74345223880597 -2.290549253731343 -2.092259701492538
C 0.5698477611940298 -1.5506492537313434 -1.6506597014925382
H 1.5072477611940298 -1.351949253731343 0.2991402985074618
H -0.7173522388059701 -1.7640492537313435 -3.3840597014925375
C 1.7791477611940298 -1.082849253731343 -2.4255597014925376
H 1.4739477611940297 -0.9102492537313429 -3.464259701492538
H 2.1252477611940295 -0.1337492537313434 -2.0010597014925384
C 1.3965477611940298 2.0964507462686566 1.997440298507462
H 1.51704776119403 1.8448507462686567 3.057640298507462
H 2.1256477611940294 1.5207507462686571 1.4165402985074618
C 3.94864776119403 -1.4275492537313434 -3.522959701492538
H 4.81734776119403 -2.087049253731343 -3.615159701492538
H 3.4305477611940303 -1.3641492537313429 -4.484459701492538
H 4.26984776119403 -0.441449253731343 -3.176459701492538
C 2.60904776119403 -3.4296492537313434 -2.8992597014925376
H 1.9825477611940296 -3.869549253731343 -2.119359701492538
H 2.06294776119403 -3.373349253731343 -3.845759701492538
H 3.5215477611940305 -4.019849253731343 -3.0234597014925377
C 3.7281477611940304 -2.060049253731343 -1.156659701492538
H 3.9048477611940298 -1.032549253731343 -0.8295597014925382
H 3.12924776119403 -2.623249253731343 -0.4404597014925382
H 4.68244776119403 -2.5769492537313434 -1.3005597014925383
C 3.1110477611940297 3.755250746268656 2.588740298507462
H 3.40124776119403 4.809350746268656 2.534540298507462
H 2.9823477611940303 3.461750746268656 3.634840298507462
H 3.86514776119403 3.1392507462686563 2.091540298507462
C 1.99744776119403 3.9574507462686572 0.40494029850746194
H 2.67914776119403 3.230350746268657 -0.04295970149253803
H 1.03214776119403 3.981150746268657 -0.10175970149253821
H 2.4399477611940297 4.958250746268657 0.368240298507462
C 0.7418477611940297 4.4992507462686575 2.475440298507462
H -0.18475223880597014 4.424250746268656 1.901240298507462
H 0.57844776119403 4.189650746268656 3.511940298507462
H 1.1210477611940297 5.524350746268658 2.4432402985074617
N 3.00114776119403 -2.025349253731343 -2.490159701492538
N 1.7831477611940298 3.586450746268657 1.862540298507462
C -3.55075223880597 -3.8435492537313434 0.6444402985074619
H -2.62515223880597 -2.2736492537313433 1.7424402985074618
H -4.67195223880597 -1.3478492537313436 1.5102402985074619
H -4.83415223880597 -1.6757492537313432 -0.1945597014925382
H -3.7169522388059697 0.17335074626865676 -0.900559701492538
H -3.9132522388059705 -4.043149253731343 -0.34225970149253815
H -4.35435223880597 -3.9354492537313432 1.3449402985074619
H -2.78115223880597 -4.545049253731343 0.8904402985074619
H -5.24235223880597 1.138950746268657 1.5249402985074618
H -5.92805223880597 0.6501507462686567 -0.006059701492538094
H -4.89895223880597 2.059650746268657 0.08004029850746197
O -7.9956865707043665 -1.0957751949027321 11.979377306757826
H -8.58055939666308 -0.37618614042864523 12.26059381949518
H -7.220236764551028 -0.6398846159464913 11.61909502512897
O 4.458482687255741 5.808539793380826 4.935090618697818
H 4.44196402783093 5.497995919184132 5.852836222331916
H 4.4386204456736 4.993269703220851 4.411734033041462
O -0.09213887317035321 7.588765670071103 -0.10466982628275942
H 0.006458384199331993 7.626430157265797 0.858568111167556
H 0.37705712329713137 6.779198770590724 -0.35650011926715997
O -2.319664744557609 0.6059871520426071 -9.839674188146548
H -2.101635710865928 -0.24056388286166297 -9.421604764880529
H -1.4700564248383259 1.069599306686715 -9.88648676583699
O 12.221849062756116 6.675801121093525 11.983275130505257
H 12.161434810039294 7.31716381590365 12.707133796734075
H 11.301172324689123 6.540288957404572 11.713177478211383
O 2.477175096177817 -2.7156910844042867 5.004473111269632
H 2.9449011604291533 -3.1699451058952075 5.721308496612237
H 3.186049044736816 -2.3130531217309573 4.480696116386653
O -0.3035180010285944 0.26793728487463875 -6.415235640152578
H -0.17010426253801933 0.07982598924640799 -7.356395707165112
H -0.22590315394779842 -0.5992682603821993 -5.989921142294329
O -11.99870460640214 -2.873475724381164 12.869374644130458
H -12.122614254442494 -2.7395182488182233 11.917708131762117
H -11.650230054052564 -3.775234657105349 12.935391747345456
O 5.338506134171639 0.13200228077440143 -6.3854628592328835
H 5.250256787259459 0.7299710218640145 -5.628090563496316
H 5.573302179813207 -0.7189122614388892 -5.9857414523742705
O 8.40494823239137 7.839813575139615 8.680575693706363
H 9.210283927532785 8.338132240980084 8.475440903126918
H 8.574371017005694 7.473522070604433 9.561534488462893
C -4.096363248834664 -3.5697674897030045 4.523413526059827
O -3.235212728172003 -3.6700565703833057 3.698077147145916
O -4.957513769497325 -3.4694784090227033 5.348749904973738
C -5.1784580713122095 -2.396387802839852 10.022281803151513
O -4.515925631331927 -2.057326110560299 10.990715297720087
O -5.060371350666252 -1.9349805648831782 8.881321527213618
O -6.0695551877488905 -3.2534012421528824 10.033339755723418


