%nprocshared=1
%mem=1GB
#p opt=(calcfc,cartesian,maxcycles=5000) iop(1/152=5000) pm6

Title

0 1
C -5.0710522388059704 1.0783507462686561 0.47044029850746183
C -3.8153522388059704 0.1782507462686569 0.19534029850746193
C -4.11845223880597 -1.3219492537313435 0.5608402985074619
C -2.96945223880597 -2.3874492537313436 0.7034402985074619
C -2.52015223880597 0.7359507462686565 0.7384402985074618
C -2.20305223880597 0.7852507462686571 2.097440298507462
C -1.5755522388059702 1.205650746268656 -0.18965970149253808
C -0.9533522388059701 1.2695507462686564 2.508640298507462
H -2.91125223880597 0.4298507462686567 2.840840298507462
C -0.32655223880597006 1.6562507462686575 0.21554029850746192
H -1.7850522388059702 1.178550746268657 -1.2573597014925382
C 0.004447761194029898 1.6956507462686563 1.569740298507462
H -0.7158522388059702 1.2676507462686573 3.5705402985074617
H 0.3943477611940298 1.9193507462686572 -0.5551597014925382
C -1.76045223880597 -2.1592492537313435 -0.1734597014925381
C -0.5287522388059701 -1.936549253731343 0.464840298507462
C -1.8068522388059702 -2.121249253731343 -1.5681597014925381
C 0.6114477611940299 -1.614449253731343 -0.2582597014925381
H -0.4544522388059702 -1.954049253731343 1.5506402985074619
C -0.6479522388059701 -1.8270492537313432 -2.2998597014925384
H -2.74345223880597 -2.290549253731343 -2.092259701492538
C 0.5698477611940298 -1.5506492537313434 -1.6506597014925382
H 1.5072477611940298 -1.351949253731343 0.2991402985074618
H -0.7173522388059701 -1.7640492537313435 -3.3840597014925375
C 1.7791477611940298 -1.082849253731343 -2.4255597014925376
H 1.4739477611940297 -0.9102492537313429 -3.464259701492538
H 2.1252477611940295 -0.1337492537313434 -2.0010597014925384
C 1.3965477611940298 2.0964507462686566 1.997440298507462
H 1.51704776119403 1.8448507462686567 3.057640298507462
H 2.1256477611940294 1.5207507462686571 1.4165402985074618
C 3.94864776119403 -1.4275492537313434 -3.522959701492538
H 4.81734776119403 -2.087049253731343 -3.615159701492538
H 3.4305477611940303 -1.3641492537313429 -4.484459701492538
H 4.26984776119403 -0.441449253731343 -3.176459701492538
C 2.60904776119403 -3.4296492537313434 -2.8992597014925376
H 1.9825477611940296 -3.869549253731343 -2.119359701492538
H 2.06294776119403 -3.373349253731343 -3.845759701492538
H 3.5215477611940305 -4.019849253731343 -3.0234597014925377
C 3.7281477611940304 -2.060049253731343 -1.156659701492538
H 3.9048477611940298 -1.032549253731343 -0.8295597014925382
H 3.12924776119403 -2.623249253731343 -0.4404597014925382
H 4.68244776119403 -2.5769492537313434 -1.3005597014925383
C 3.1110477611940297 3.755250746268656 2.588740298507462
H 3.40124776119403 4.809350746268656 2.534540298507462
H 2.9823477611940303 3.461750746268656 3.634840298507462
H 3.86514776119403 3.1392507462686563 2.091540298507462
C 1.99744776119403 3.9574507462686572 0.40494029850746194
H 2.67914776119403 3.230350746268657 -0.04295970149253803
H 1.03214776119403 3.981150746268657 -0.10175970149253821
H 2.4399477611940297 4.958250746268657 0.368240298507462
C 0.7418477611940297 4.4992507462686575 2.475440298507462
H -0.18475223880597014 4.424250746268656 1.901240298507462
H 0.57844776119403 4.189650746268656 3.511940298507462
H 1.1210477611940297 5.524350746268658 2.4432402985074617
N 3.00114776119403 -2.025349253731343 -2.490159701492538
N 1.7831477611940298 3.586450746268657 1.862540298507462
C -3.55075223880597 -3.8435492537313434 0.6444402985074619
H -2.62515223880597 -2.2736492537313433 1.7424402985074618
H -4.67195223880597 -1.3478492537313436 1.5102402985074619
H -4.83415223880597 -1.6757492537313432 -0.1945597014925382
H -3.7169522388059697 0.17335074626865676 -0.900559701492538
H -3.9132522388059705 -4.043149253731343 -0.34225970149253815
H -4.35435223880597 -3.9354492537313432 1.3449402985074619
H -2.78115223880597 -4.545049253731343 0.8904402985074619
H -5.24235223880597 1.138950746268657 1.5249402985074618
H -5.92805223880597 0.6501507462686567 -0.006059701492538094
H -4.89895223880597 2.059650746268657 0.08004029850746197
O -6.094148960628425 0.20780863124601578 5.79587571378117
H -5.163253126986601 0.05896955119958619 5.571716770039843
H -6.212233016059698 -0.266778182445602 6.632407516178987
O 0.6217346906190474 0.013075635428585919 -10.372146611720604
H -0.12058847900967651 0.6173203317653507 -10.221110140359356
H 1.4007591071752925 0.5322674670767191 -10.122101126540292
O -5.425400876843562 4.572320059217205 9.306504855473559
H -5.704126817712721 4.335669663279629 8.409133250791756
H -5.08345328313755 5.474366980693973 9.215153123618313
O 2.5954321165825003 0.010988244411627462 9.922371411640905
H 3.425396795175997 0.27030584420463377 9.494726264790401
H 2.86153429820968 -0.6743905243706729 10.553566719398901
O 10.796432773930576 -0.6057774529082278 10.768169264036015
H 10.839222011657005 0.326636941615387 10.507900489650856
H 10.580508023385523 -0.5755656339544648 11.712322690337885
O -0.5784353799813657 4.7884254165233635 -2.1509389376663055
H -1.4028185884653435 4.310667569988704 -1.974566823815424
H 0.040968752412808174 4.094286623348394 -2.4219957599058803
O 11.027261173686334 5.120684298588097 11.23263739723902
H 10.95072458264748 5.657467214985546 10.429534908265166
H 10.574670331819236 4.294416188454898 11.005911826702874
O 10.076786278033886 9.414099566634581 11.036233924366055
H 9.131283845625287 9.554550134829569 11.19518720398975
H 10.170266103248645 9.51421747227934 10.076963435115434
O -0.5040844260536539 6.772721330696536 1.4681144871147058
H -1.0616885356706425 6.848463788818427 2.256979554078569
H -0.7825091248737615 7.516128850939832 0.9124285234331996
O -2.20179227748345 -7.152906544305821 -3.1195873930582083
H -1.7772795794145089 -7.949804730237679 -2.7678636273886945
H -2.462601563613881 -7.403952272422248 -4.018429149410586
C 3.3114421612740417 3.5077682766325164 -10.2969694703193
O 4.3704740547258 4.059760873325832 -10.215890008383765
O 2.2524102678222837 2.9557756799392014 -10.378048932254837
C -4.939539406876923 5.501390401557992 -8.634490192049242
O -5.694978198519195 5.934234099098747 -7.7779074090204725
O -4.7372558115280405 6.024440343376866 -9.736366577818536
O -4.260418755779496 4.473313378078158 -8.532015027029365


