%nprocshared=1
%mem=1GB
#p opt=(calcfc,cartesian,maxcycles=5000) iop(1/152=5000) pm6

Title

0 1
C -5.0710522388059704 1.0783507462686561 0.47044029850746183
C -3.8153522388059704 0.1782507462686569 0.19534029850746193
C -4.11845223880597 -1.3219492537313435 0.5608402985074619
C -2.96945223880597 -2.3874492537313436 0.7034402985074619
C -2.52015223880597 0.7359507462686565 0.7384402985074618
C -2.20305223880597 0.7852507462686571 2.097440298507462
C -1.5755522388059702 1.205650746268656 -0.18965970149253808
C -0.9533522388059701 1.2695507462686564 2.508640298507462
H -2.91125223880597 0.4298507462686567 2.840840298507462
C -0.32655223880597006 1.6562507462686575 0.21554029850746192
H -1.7850522388059702 1.178550746268657 -1.2573597014925382
C 0.004447761194029898 1.6956507462686563 1.569740298507462
H -0.7158522388059702 1.2676507462686573 3.5705402985074617
H 0.3943477611940298 1.9193507462686572 -0.5551597014925382
C -1.76045223880597 -2.1592492537313435 -0.1734597014925381
C -0.5287522388059701 -1.936549253731343 0.464840298507462
C -1.8068522388059702 -2.121249253731343 -1.5681597014925381
C 0.6114477611940299 -1.614449253731343 -0.2582597014925381
H -0.4544522388059702 -1.954049253731343 1.5506402985074619
C -0.6479522388059701 -1.8270492537313432 -2.2998597014925384
H -2.74345223880597 -2.290549253731343 -2.092259701492538
C 0.5698477611940298 -1.5506492537313434 -1.6506597014925382
H 1.5072477611940298 -1.351949253731343 0.2991402985074618
H -0.7173522388059701 -1.7640492537313435 -3.3840597014925375
C 1.7791477611940298 -1.082849253731343 -2.4255597014925376
H 1.4739477611940297 -0.9102492537313429 -3.464259701492538
H 2.1252477611940295 -0.1337492537313434 -2.0010597014925384
C 1.3965477611940298 2.0964507462686566 1.997440298507462
H 1.51704776119403 1.8448507462686567 3.057640298507462
H 2.1256477611940294 1.5207507462686571 1.4165402985074618
C 3.94864776119403 -1.4275492537313434 -3.522959701492538
H 4.81734776119403 -2.087049253731343 -3.615159701492538
H 3.4305477611940303 -1.3641492537313429 -4.484459701492538
H 4.26984776119403 -0.441449253731343 -3.176459701492538
C 2.60904776119403 -3.4296492537313434 -2.8992597014925376
H 1.9825477611940296 -3.869549253731343 -2.119359701492538
H 2.06294776119403 -3.373349253731343 -3.845759701492538
H 3.5215477611940305 -4.019849253731343 -3.0234597014925377
C 3.7281477611940304 -2.060049253731343 -1.156659701492538
H 3.9048477611940298 -1.032549253731343 -0.8295597014925382
H 3.12924776119403 -2.623249253731343 -0.4404597014925382
H 4.68244776119403 -2.5769492537313434 -1.3005597014925383
C 3.1110477611940297 3.755250746268656 2.588740298507462
H 3.40124776119403 4.809350746268656 2.534540298507462
H 2.9823477611940303 3.461750746268656 3.634840298507462
H 3.86514776119403 3.1392507462686563 2.091540298507462
C 1.99744776119403 3.9574507462686572 0.40494029850746194
H 2.67914776119403 3.230350746268657 -0.04295970149253803
H 1.03214776119403 3.981150746268657 -0.10175970149253821
H 2.4399477611940297 4.958250746268657 0.368240298507462
C 0.7418477611940297 4.4992507462686575 2.475440298507462
H -0.18475223880597014 4.424250746268656 1.901240298507462
H 0.57844776119403 4.189650746268656 3.511940298507462
H 1.1210477611940297 5.524350746268658 2.4432402985074617
N 3.00114776119403 -2.025349253731343 -2.490159701492538
N 1.7831477611940298 3.586450746268657 1.862540298507462
C -3.55075223880597 -3.8435492537313434 0.6444402985074619
H -2.62515223880597 -2.2736492537313433 1.7424402985074618
H -4.67195223880597 -1.3478492537313436 1.5102402985074619
H -4.83415223880597 -1.6757492537313432 -0.1945597014925382
H -3.7169522388059697 0.17335074626865676 -0.900559701492538
H -3.9132522388059705 -4.043149253731343 -0.34225970149253815
H -4.35435223880597 -3.9354492537313432 1.3449402985074619
H -2.78115223880597 -4.545049253731343 0.8904402985074619
H -5.24235223880597 1.138950746268657 1.5249402985074618
H -5.92805223880597 0.6501507462686567 -0.006059701492538094
H -4.89895223880597 2.059650746268657 0.08004029850746197
O -6.449253555240895 3.02262771106553 13.549427988286993
H -6.416656181080086 3.1210020720155423 14.51287349956695
H -6.859344749194673 2.1548035302189605 13.416505649759774
O 0.7546004839026517 -0.8697968067318681 5.098641134354811
H 0.7582968557511207 -0.9154811199218449 6.066559848536698
H 0.7434897137934509 -1.7979705683810354 4.820554882854283
O -8.63822526816842 8.477251050670617 -10.724376394911133
H -8.68928534338567 8.47221627512032 -11.6920203773003
H -9.510191466614076 8.162461384600558 -10.442340299342268
O 6.953554142881538 0.3245755554122282 -11.159493667382193
H 6.242536439537033 0.9033299495697017 -11.47328425626931
H 6.632576870751441 0.0022528282562800372 -10.303898205359006
O -0.7812139159967547 -3.980007638570637 -0.568960023161946
H -0.411287986450815 -4.03618780416982 0.32488893082458864
H -0.09022913938715993 -3.5330722459585284 -1.0805758337312132
O -7.8848637053980895 0.505231247837517 7.664432916285324
H -8.56285857263551 0.816054157579646 8.283043808267635
H -7.083874638081244 0.9764359828037652 7.938922544658193
O -4.720517440991392 12.176267388241895 -5.166162162158244
H -5.044819286340052 12.37668494375319 -4.27530388305526
H -4.724832669239275 11.2080351342626 -5.20449785648277
O 6.546360287581517 3.7703494911767743 -8.671954744526776
H 6.591641375650944 3.669655882650565 -9.634647726305088
H 6.868128307181792 2.9217189379633117 -8.332464729923801
O 7.781048044524202 2.5019914226899846 8.261872081262142
H 8.12363920174211 2.557734717918684 9.166577193955302
H 6.9406457095587015 2.029401384226747 8.358539114059518
O 13.758217803942868 0.9811130496855378 14.210158142515725
H 13.835796240207687 0.9886392119207019 13.244294642838511
H 14.34307234221058 0.2595618896977755 14.486330257125394
C -1.4776610955508371 0.210590032968129 12.869957751586524
O -1.3293031829613489 -0.9694420117975653 12.734559965791538
O -1.6260190081403254 1.390622077733823 13.00535553738151
C 4.000609538940963 -2.9891458013046477 4.0383458126545655
O 4.406337760657826 -2.647723920033351 5.138614510605953
O 4.371572550124183 -3.99517318642262 3.4227755008082466
O 3.1562585219211923 -2.381457766929995 3.370187899182347


