%nprocshared=1
%mem=1GB
#p opt=(calcfc,cartesian,maxcycles=5000) iop(1/152=5000) pm6

Title

0 1
C -5.0710522388059704 1.0783507462686561 0.47044029850746183
C -3.8153522388059704 0.1782507462686569 0.19534029850746193
C -4.11845223880597 -1.3219492537313435 0.5608402985074619
C -2.96945223880597 -2.3874492537313436 0.7034402985074619
C -2.52015223880597 0.7359507462686565 0.7384402985074618
C -2.20305223880597 0.7852507462686571 2.097440298507462
C -1.5755522388059702 1.205650746268656 -0.18965970149253808
C -0.9533522388059701 1.2695507462686564 2.508640298507462
H -2.91125223880597 0.4298507462686567 2.840840298507462
C -0.32655223880597006 1.6562507462686575 0.21554029850746192
H -1.7850522388059702 1.178550746268657 -1.2573597014925382
C 0.004447761194029898 1.6956507462686563 1.569740298507462
H -0.7158522388059702 1.2676507462686573 3.5705402985074617
H 0.3943477611940298 1.9193507462686572 -0.5551597014925382
C -1.76045223880597 -2.1592492537313435 -0.1734597014925381
C -0.5287522388059701 -1.936549253731343 0.464840298507462
C -1.8068522388059702 -2.121249253731343 -1.5681597014925381
C 0.6114477611940299 -1.614449253731343 -0.2582597014925381
H -0.4544522388059702 -1.954049253731343 1.5506402985074619
C -0.6479522388059701 -1.8270492537313432 -2.2998597014925384
H -2.74345223880597 -2.290549253731343 -2.092259701492538
C 0.5698477611940298 -1.5506492537313434 -1.6506597014925382
H 1.5072477611940298 -1.351949253731343 0.2991402985074618
H -0.7173522388059701 -1.7640492537313435 -3.3840597014925375
C 1.7791477611940298 -1.082849253731343 -2.4255597014925376
H 1.4739477611940297 -0.9102492537313429 -3.464259701492538
H 2.1252477611940295 -0.1337492537313434 -2.0010597014925384
C 1.3965477611940298 2.0964507462686566 1.997440298507462
H 1.51704776119403 1.8448507462686567 3.057640298507462
H 2.1256477611940294 1.5207507462686571 1.4165402985074618
C 3.94864776119403 -1.4275492537313434 -3.522959701492538
H 4.81734776119403 -2.087049253731343 -3.615159701492538
H 3.4305477611940303 -1.3641492537313429 -4.484459701492538
H 4.26984776119403 -0.441449253731343 -3.176459701492538
C 2.60904776119403 -3.4296492537313434 -2.8992597014925376
H 1.9825477611940296 -3.869549253731343 -2.119359701492538
H 2.06294776119403 -3.373349253731343 -3.845759701492538
H 3.5215477611940305 -4.019849253731343 -3.0234597014925377
C 3.7281477611940304 -2.060049253731343 -1.156659701492538
H 3.9048477611940298 -1.032549253731343 -0.8295597014925382
H 3.12924776119403 -2.623249253731343 -0.4404597014925382
H 4.68244776119403 -2.5769492537313434 -1.3005597014925383
C 3.1110477611940297 3.755250746268656 2.588740298507462
H 3.40124776119403 4.809350746268656 2.534540298507462
H 2.9823477611940303 3.461750746268656 3.634840298507462
H 3.86514776119403 3.1392507462686563 2.091540298507462
C 1.99744776119403 3.9574507462686572 0.40494029850746194
H 2.67914776119403 3.230350746268657 -0.04295970149253803
H 1.03214776119403 3.981150746268657 -0.10175970149253821
H 2.4399477611940297 4.958250746268657 0.368240298507462
C 0.7418477611940297 4.4992507462686575 2.475440298507462
H -0.18475223880597014 4.424250746268656 1.901240298507462
H 0.57844776119403 4.189650746268656 3.511940298507462
H 1.1210477611940297 5.524350746268658 2.4432402985074617
N 3.00114776119403 -2.025349253731343 -2.490159701492538
N 1.7831477611940298 3.586450746268657 1.862540298507462
C -3.55075223880597 -3.8435492537313434 0.6444402985074619
H -2.62515223880597 -2.2736492537313433 1.7424402985074618
H -4.67195223880597 -1.3478492537313436 1.5102402985074619
H -4.83415223880597 -1.6757492537313432 -0.1945597014925382
H -3.7169522388059697 0.17335074626865676 -0.900559701492538
H -3.9132522388059705 -4.043149253731343 -0.34225970149253815
H -4.35435223880597 -3.9354492537313432 1.3449402985074619
H -2.78115223880597 -4.545049253731343 0.8904402985074619
H -5.24235223880597 1.138950746268657 1.5249402985074618
H -5.92805223880597 0.6501507462686567 -0.006059701492538094
H -4.89895223880597 2.059650746268657 0.08004029850746197
O 6.7851761504200025 -4.570518803461267 -8.060809373041089
H 6.379437752166777 -4.975913172150261 -7.279784972066216
H 6.153786937687642 -4.751622598576507 -8.773207451182845
O -4.687319542611059 6.021203354744307 -8.598065770681423
H -3.9234332524306264 5.8403181758955895 -8.029976301805924
H -5.085322142173689 6.814651901712828 -8.20948466157429
O 2.3024067923857996 8.711448634013065 2.793228549895467
H 1.6497780186961293 9.394584488619117 2.5778952157273096
H 2.9861671643728815 8.818909953464999 2.115079773577367
O -4.59657641706855 -3.6416039947102705 -5.107748596982934
H -5.493102884247077 -3.3038256342719112 -5.253053207260673
H -4.253776258173721 -3.0928901525809946 -4.386386611002659
O -4.847565930074918 -8.481491801644436 4.871120026477414
H -3.9834011461930565 -8.54588693673863 5.304755645142
H -4.724768791665867 -7.787118259029032 4.206493672490243
O -6.33643385220655 3.9314995365878946 6.457004459898539
H -5.867274617165948 4.748137707749866 6.229059145234365
H -6.882737284677384 4.179975282148604 7.217776638568759
O -3.926496784912322 3.237111765031792 -3.6371407796397293
H -4.329198405987426 3.4322678644370628 -4.496624844732507
H -3.514745664095673 2.3690612546347474 -3.7632806631249403
O 5.604914712409111 9.117256862482476 7.885199816376707
H 5.691366878244278 9.132416137656541 6.9201798288642165
H 6.505527442874094 8.944352873169729 8.198190015111656
O 3.437509833610946 -0.046528684597390346 -7.301917488439896
H 3.5794045244569594 -0.19564706390279668 -6.355029447242287
H 2.637092167112301 0.4985911604222361 -7.335649639611165
O -2.8193360951094544 1.314457755025244 12.901030455704335
H -2.97650269112433 1.9103096660179752 12.153215961218297
H -2.137244479814837 0.7071858343600719 12.577095605747724
C 5.1451101817358 -3.600593103519382 6.554444233159858
O 4.5699041399943185 -3.2466286462021787 7.542708079407527
O 5.720316223477281 -3.954557560836585 5.5661803869121895
C 1.7477780865083128 -6.933892926341339 2.849198838444292
O 2.403000985311796 -7.05639394541424 1.8257478372675575
O 2.2101450735552106 -6.660577905132027 3.9628177735251064
O 0.520924267478952 -7.064283902250111 2.9296742044554587


