%nprocshared=1
%mem=1GB
#p opt=(calcfc,cartesian,maxcycles=5000) iop(1/152=5000) pm6

Title

0 1
C -5.0710522388059704 1.0783507462686561 0.47044029850746183
C -3.8153522388059704 0.1782507462686569 0.19534029850746193
C -4.11845223880597 -1.3219492537313435 0.5608402985074619
C -2.96945223880597 -2.3874492537313436 0.7034402985074619
C -2.52015223880597 0.7359507462686565 0.7384402985074618
C -2.20305223880597 0.7852507462686571 2.097440298507462
C -1.5755522388059702 1.205650746268656 -0.18965970149253808
C -0.9533522388059701 1.2695507462686564 2.508640298507462
H -2.91125223880597 0.4298507462686567 2.840840298507462
C -0.32655223880597006 1.6562507462686575 0.21554029850746192
H -1.7850522388059702 1.178550746268657 -1.2573597014925382
C 0.004447761194029898 1.6956507462686563 1.569740298507462
H -0.7158522388059702 1.2676507462686573 3.5705402985074617
H 0.3943477611940298 1.9193507462686572 -0.5551597014925382
C -1.76045223880597 -2.1592492537313435 -0.1734597014925381
C -0.5287522388059701 -1.936549253731343 0.464840298507462
C -1.8068522388059702 -2.121249253731343 -1.5681597014925381
C 0.6114477611940299 -1.614449253731343 -0.2582597014925381
H -0.4544522388059702 -1.954049253731343 1.5506402985074619
C -0.6479522388059701 -1.8270492537313432 -2.2998597014925384
H -2.74345223880597 -2.290549253731343 -2.092259701492538
C 0.5698477611940298 -1.5506492537313434 -1.6506597014925382
H 1.5072477611940298 -1.351949253731343 0.2991402985074618
H -0.7173522388059701 -1.7640492537313435 -3.3840597014925375
C 1.7791477611940298 -1.082849253731343 -2.4255597014925376
H 1.4739477611940297 -0.9102492537313429 -3.464259701492538
H 2.1252477611940295 -0.1337492537313434 -2.0010597014925384
C 1.3965477611940298 2.0964507462686566 1.997440298507462
H 1.51704776119403 1.8448507462686567 3.057640298507462
H 2.1256477611940294 1.5207507462686571 1.4165402985074618
C 3.94864776119403 -1.4275492537313434 -3.522959701492538
H 4.81734776119403 -2.087049253731343 -3.615159701492538
H 3.4305477611940303 -1.3641492537313429 -4.484459701492538
H 4.26984776119403 -0.441449253731343 -3.176459701492538
C 2.60904776119403 -3.4296492537313434 -2.8992597014925376
H 1.9825477611940296 -3.869549253731343 -2.119359701492538
H 2.06294776119403 -3.373349253731343 -3.845759701492538
H 3.5215477611940305 -4.019849253731343 -3.0234597014925377
C 3.7281477611940304 -2.060049253731343 -1.156659701492538
H 3.9048477611940298 -1.032549253731343 -0.8295597014925382
H 3.12924776119403 -2.623249253731343 -0.4404597014925382
H 4.68244776119403 -2.5769492537313434 -1.3005597014925383
C 3.1110477611940297 3.755250746268656 2.588740298507462
H 3.40124776119403 4.809350746268656 2.534540298507462
H 2.9823477611940303 3.461750746268656 3.634840298507462
H 3.86514776119403 3.1392507462686563 2.091540298507462
C 1.99744776119403 3.9574507462686572 0.40494029850746194
H 2.67914776119403 3.230350746268657 -0.04295970149253803
H 1.03214776119403 3.981150746268657 -0.10175970149253821
H 2.4399477611940297 4.958250746268657 0.368240298507462
C 0.7418477611940297 4.4992507462686575 2.475440298507462
H -0.18475223880597014 4.424250746268656 1.901240298507462
H 0.57844776119403 4.189650746268656 3.511940298507462
H 1.1210477611940297 5.524350746268658 2.4432402985074617
N 3.00114776119403 -2.025349253731343 -2.490159701492538
N 1.7831477611940298 3.586450746268657 1.862540298507462
C -3.55075223880597 -3.8435492537313434 0.6444402985074619
H -2.62515223880597 -2.2736492537313433 1.7424402985074618
H -4.67195223880597 -1.3478492537313436 1.5102402985074619
H -4.83415223880597 -1.6757492537313432 -0.1945597014925382
H -3.7169522388059697 0.17335074626865676 -0.900559701492538
H -3.9132522388059705 -4.043149253731343 -0.34225970149253815
H -4.35435223880597 -3.9354492537313432 1.3449402985074619
H -2.78115223880597 -4.545049253731343 0.8904402985074619
H -5.24235223880597 1.138950746268657 1.5249402985074618
H -5.92805223880597 0.6501507462686567 -0.006059701492538094
H -4.89895223880597 2.059650746268657 0.08004029850746197
O 0.32277199410352847 -9.010097408157117 0.016780768044821842
H -0.5246601622202515 -9.476975625055378 -0.03661237678043336
H 0.8214288404148811 -9.50568762737855 0.6836342965942835
O -3.938692344292835 -2.419352432338623 5.557690773000174
H -3.9873894125378486 -2.8398682655196135 4.686047275641053
H -3.7907841238827134 -1.482801112531596 5.357798982266222
O 3.423175576772715 8.463066991897305 -3.7914046032481927
H 3.5672316706839347 8.27456024796031 -2.8518938762219843
H 2.4585516409827743 8.488626617935584 -3.8797749168037434
O -0.5872444086432722 -4.752215741470195 -1.1569475329049146
H -0.9340676208263095 -5.310033421410107 -0.444542835883976
H -0.28676973330508315 -3.9512359346299677 -0.7018560445043935
O -1.1640918014939485 5.706138497050142 -1.0567836312059549
H -0.8953671133470447 4.96530851595124 -1.6206323147952242
H -1.9410535430109388 6.0720321057003765 -1.5055756361122297
O 5.4708592912323075 0.7436927094321651 6.1626337789148256
H 5.273623976204937 1.665504974099349 5.9382953379039
H 4.829090158273315 0.23441254452438398 5.645209351667169
O 1.2921894806854997 0.7061413737235839 10.523991598044686
H 1.7918389660645018 0.5618691232777272 11.341612088499632
H 1.6759828988846637 0.07175246708325728 9.900120400137062
O -2.728284301156603 3.8990375622388114 -4.779963904564502
H -1.9127379248458827 3.388417943623904 -4.665425395441936
H -3.372996690607436 3.2444302911115357 -5.087855443545195
O 0.36698791373680106 -0.043317370274360084 -8.772764140254978
H 0.4594504798959439 -0.020774528010466337 -9.737082475153747
H -0.5862032901097396 -0.14524775713521176 -8.63134748832184
O 1.8550241469230733 9.395685381116095 2.0453727741641807
H 2.190341169519691 9.018077345926446 2.872380647776732
H 1.4153796407781327 8.65046215606364 1.609119410441921
C -5.180841209164208 -7.333914121410948 5.769775585030581
O -5.777507812405108 -7.330500323868457 6.807463191135283
O -4.584174605923309 -7.337327918953439 4.73208797892588
C 2.4050299241514033 -5.7245036635974245 4.261947851353864
O 2.776814680581101 -5.101452238332786 5.244474448938994
O 1.5844780938606566 -6.64927451742363 4.27312934588969
O 2.7918139608756163 -5.526664152361741 3.104404754476106


