%nprocshared=1
%mem=1GB
#p opt=(calcfc,cartesian,maxcycles=5000) iop(1/152=5000) pm6

Title

0 1
C -5.0710522388059704 1.0783507462686561 0.47044029850746183
C -3.8153522388059704 0.1782507462686569 0.19534029850746193
C -4.11845223880597 -1.3219492537313435 0.5608402985074619
C -2.96945223880597 -2.3874492537313436 0.7034402985074619
C -2.52015223880597 0.7359507462686565 0.7384402985074618
C -2.20305223880597 0.7852507462686571 2.097440298507462
C -1.5755522388059702 1.205650746268656 -0.18965970149253808
C -0.9533522388059701 1.2695507462686564 2.508640298507462
H -2.91125223880597 0.4298507462686567 2.840840298507462
C -0.32655223880597006 1.6562507462686575 0.21554029850746192
H -1.7850522388059702 1.178550746268657 -1.2573597014925382
C 0.004447761194029898 1.6956507462686563 1.569740298507462
H -0.7158522388059702 1.2676507462686573 3.5705402985074617
H 0.3943477611940298 1.9193507462686572 -0.5551597014925382
C -1.76045223880597 -2.1592492537313435 -0.1734597014925381
C -0.5287522388059701 -1.936549253731343 0.464840298507462
C -1.8068522388059702 -2.121249253731343 -1.5681597014925381
C 0.6114477611940299 -1.614449253731343 -0.2582597014925381
H -0.4544522388059702 -1.954049253731343 1.5506402985074619
C -0.6479522388059701 -1.8270492537313432 -2.2998597014925384
H -2.74345223880597 -2.290549253731343 -2.092259701492538
C 0.5698477611940298 -1.5506492537313434 -1.6506597014925382
H 1.5072477611940298 -1.351949253731343 0.2991402985074618
H -0.7173522388059701 -1.7640492537313435 -3.3840597014925375
C 1.7791477611940298 -1.082849253731343 -2.4255597014925376
H 1.4739477611940297 -0.9102492537313429 -3.464259701492538
H 2.1252477611940295 -0.1337492537313434 -2.0010597014925384
C 1.3965477611940298 2.0964507462686566 1.997440298507462
H 1.51704776119403 1.8448507462686567 3.057640298507462
H 2.1256477611940294 1.5207507462686571 1.4165402985074618
C 3.94864776119403 -1.4275492537313434 -3.522959701492538
H 4.81734776119403 -2.087049253731343 -3.615159701492538
H 3.4305477611940303 -1.3641492537313429 -4.484459701492538
H 4.26984776119403 -0.441449253731343 -3.176459701492538
C 2.60904776119403 -3.4296492537313434 -2.8992597014925376
H 1.9825477611940296 -3.869549253731343 -2.119359701492538
H 2.06294776119403 -3.373349253731343 -3.845759701492538
H 3.5215477611940305 -4.019849253731343 -3.0234597014925377
C 3.7281477611940304 -2.060049253731343 -1.156659701492538
H 3.9048477611940298 -1.032549253731343 -0.8295597014925382
H 3.12924776119403 -2.623249253731343 -0.4404597014925382
H 4.68244776119403 -2.5769492537313434 -1.3005597014925383
C 3.1110477611940297 3.755250746268656 2.588740298507462
H 3.40124776119403 4.809350746268656 2.534540298507462
H 2.9823477611940303 3.461750746268656 3.634840298507462
H 3.86514776119403 3.1392507462686563 2.091540298507462
C 1.99744776119403 3.9574507462686572 0.40494029850746194
H 2.67914776119403 3.230350746268657 -0.04295970149253803
H 1.03214776119403 3.981150746268657 -0.10175970149253821
H 2.4399477611940297 4.958250746268657 0.368240298507462
C 0.7418477611940297 4.4992507462686575 2.475440298507462
H -0.18475223880597014 4.424250746268656 1.901240298507462
H 0.57844776119403 4.189650746268656 3.511940298507462
H 1.1210477611940297 5.524350746268658 2.4432402985074617
N 3.00114776119403 -2.025349253731343 -2.490159701492538
N 1.7831477611940298 3.586450746268657 1.862540298507462
C -3.55075223880597 -3.8435492537313434 0.6444402985074619
H -2.62515223880597 -2.2736492537313433 1.7424402985074618
H -4.67195223880597 -1.3478492537313436 1.5102402985074619
H -4.83415223880597 -1.6757492537313432 -0.1945597014925382
H -3.7169522388059697 0.17335074626865676 -0.900559701492538
H -3.9132522388059705 -4.043149253731343 -0.34225970149253815
H -4.35435223880597 -3.9354492537313432 1.3449402985074619
H -2.78115223880597 -4.545049253731343 0.8904402985074619
H -5.24235223880597 1.138950746268657 1.5249402985074618
H -5.92805223880597 0.6501507462686567 -0.006059701492538094
H -4.89895223880597 2.059650746268657 0.08004029850746197
O -5.033290372594426 3.0979240186207324 6.888408567803019
H -5.048163751547238 3.057214674755491 5.920375051430477
H -4.1473321251850646 3.431595277232933 7.095056624468168
O 10.749665536646152 0.8078604794898749 -15.262802450180855
H 10.851885942382028 0.4243311782224684 -14.37882076449923
H 9.906555990642417 1.2831563480500416 -15.215663558944295
O 5.8039971152203025 -12.295466672196282 6.6000998528679045
H 6.208703813783657 -12.124190709178455 5.736477024585634
H 4.8758479464954085 -12.479555623635104 6.391264216892042
O 5.3749958952248775 0.09116142534995125 5.7718298365439935
H 5.465823187460153 0.09512030094053664 6.7365588592178565
H 5.953041124673253 -0.6318287520726948 5.485279910069836
O 5.452116587922625 -3.950899592042835 6.724906532475043
H 6.167739791581811 -3.3964327561780627 7.070474637500193
H 4.827796294030836 -3.315977136921005 6.342729098660673
O -14.2954733742192 3.419956390527485 14.308634649981702
H -15.063386235153985 3.2191008675517443 14.864453193933862
H -14.143395886600542 4.366060542118952 14.452583656233877
O -0.9634143889353651 10.954406094438223 -1.7517988759876562
H -1.445649707776047 10.117000085799047 -1.6799126404649174
H -0.8937922650966718 11.263755983033667 -0.8361475501008996
O -8.780353640490707 4.401485345378451 -10.544536925758244
H -8.79889442850834 4.736634505087279 -11.453546626930983
H -9.680248267715504 4.073522192219197 -10.397595528045464
O -5.701830579587607 -2.5494833497817977 -7.179844825674364
H -5.875119165399141 -2.4983301803174283 -8.1318541618582
H -5.2873518427885955 -1.6987796835514344 -6.9713440024056945
O -2.1721838080347813 -5.151702977169989 4.578096777235179
H -2.297665205302634 -5.2721851472448416 3.6248361504736604
H -2.5827971781710954 -4.293397158044984 4.761589898145616
C 2.976751195821953 0.1054380197186033 2.998119851085374
O 3.795672533613998 0.9763111209349764 2.9367509551635385
O 2.1578298580299085 -0.7654350814977696 3.05948874700721
C 8.299150174705366 0.1879491254121184 -10.964811209432742
O 7.75356067306062 -0.6056694268518884 -10.213627351913548
O 8.770467897175662 -0.08912621996541253 -12.073738764131125
O 8.464391575614814 1.3909816246254838 -10.732310737041981


