%nprocshared=1
%mem=1GB
#p opt=(calcfc,cartesian,maxcycles=5000) iop(1/152=5000) pm6

Title

0 1
C -5.0710522388059704 1.0783507462686561 0.47044029850746183
C -3.8153522388059704 0.1782507462686569 0.19534029850746193
C -4.11845223880597 -1.3219492537313435 0.5608402985074619
C -2.96945223880597 -2.3874492537313436 0.7034402985074619
C -2.52015223880597 0.7359507462686565 0.7384402985074618
C -2.20305223880597 0.7852507462686571 2.097440298507462
C -1.5755522388059702 1.205650746268656 -0.18965970149253808
C -0.9533522388059701 1.2695507462686564 2.508640298507462
H -2.91125223880597 0.4298507462686567 2.840840298507462
C -0.32655223880597006 1.6562507462686575 0.21554029850746192
H -1.7850522388059702 1.178550746268657 -1.2573597014925382
C 0.004447761194029898 1.6956507462686563 1.569740298507462
H -0.7158522388059702 1.2676507462686573 3.5705402985074617
H 0.3943477611940298 1.9193507462686572 -0.5551597014925382
C -1.76045223880597 -2.1592492537313435 -0.1734597014925381
C -0.5287522388059701 -1.936549253731343 0.464840298507462
C -1.8068522388059702 -2.121249253731343 -1.5681597014925381
C 0.6114477611940299 -1.614449253731343 -0.2582597014925381
H -0.4544522388059702 -1.954049253731343 1.5506402985074619
C -0.6479522388059701 -1.8270492537313432 -2.2998597014925384
H -2.74345223880597 -2.290549253731343 -2.092259701492538
C 0.5698477611940298 -1.5506492537313434 -1.6506597014925382
H 1.5072477611940298 -1.351949253731343 0.2991402985074618
H -0.7173522388059701 -1.7640492537313435 -3.3840597014925375
C 1.7791477611940298 -1.082849253731343 -2.4255597014925376
H 1.4739477611940297 -0.9102492537313429 -3.464259701492538
H 2.1252477611940295 -0.1337492537313434 -2.0010597014925384
C 1.3965477611940298 2.0964507462686566 1.997440298507462
H 1.51704776119403 1.8448507462686567 3.057640298507462
H 2.1256477611940294 1.5207507462686571 1.4165402985074618
C 3.94864776119403 -1.4275492537313434 -3.522959701492538
H 4.81734776119403 -2.087049253731343 -3.615159701492538
H 3.4305477611940303 -1.3641492537313429 -4.484459701492538
H 4.26984776119403 -0.441449253731343 -3.176459701492538
C 2.60904776119403 -3.4296492537313434 -2.8992597014925376
H 1.9825477611940296 -3.869549253731343 -2.119359701492538
H 2.06294776119403 -3.373349253731343 -3.845759701492538
H 3.5215477611940305 -4.019849253731343 -3.0234597014925377
C 3.7281477611940304 -2.060049253731343 -1.156659701492538
H 3.9048477611940298 -1.032549253731343 -0.8295597014925382
H 3.12924776119403 -2.623249253731343 -0.4404597014925382
H 4.68244776119403 -2.5769492537313434 -1.3005597014925383
C 3.1110477611940297 3.755250746268656 2.588740298507462
H 3.40124776119403 4.809350746268656 2.534540298507462
H 2.9823477611940303 3.461750746268656 3.634840298507462
H 3.86514776119403 3.1392507462686563 2.091540298507462
C 1.99744776119403 3.9574507462686572 0.40494029850746194
H 2.67914776119403 3.230350746268657 -0.04295970149253803
H 1.03214776119403 3.981150746268657 -0.10175970149253821
H 2.4399477611940297 4.958250746268657 0.368240298507462
C 0.7418477611940297 4.4992507462686575 2.475440298507462
H -0.18475223880597014 4.424250746268656 1.901240298507462
H 0.57844776119403 4.189650746268656 3.511940298507462
H 1.1210477611940297 5.524350746268658 2.4432402985074617
N 3.00114776119403 -2.025349253731343 -2.490159701492538
N 1.7831477611940298 3.586450746268657 1.862540298507462
C -3.55075223880597 -3.8435492537313434 0.6444402985074619
H -2.62515223880597 -2.2736492537313433 1.7424402985074618
H -4.67195223880597 -1.3478492537313436 1.5102402985074619
H -4.83415223880597 -1.6757492537313432 -0.1945597014925382
H -3.7169522388059697 0.17335074626865676 -0.900559701492538
H -3.9132522388059705 -4.043149253731343 -0.34225970149253815
H -4.35435223880597 -3.9354492537313432 1.3449402985074619
H -2.78115223880597 -4.545049253731343 0.8904402985074619
H -5.24235223880597 1.138950746268657 1.5249402985074618
H -5.92805223880597 0.6501507462686567 -0.006059701492538094
H -4.89895223880597 2.059650746268657 0.08004029850746197
O -4.11380976389995 7.329561609918638 4.603447861091951
H -4.528050166705529 7.183762701499726 3.739668419401349
H -3.2836198950857476 7.7821353435720075 4.391495645662844
O 1.9995336752935944 -13.619536027800844 -2.3926867561460345
H 2.6799234016776827 -13.097584879525112 -1.9414615618753357
H 1.2514410285613782 -13.611274880609283 -1.776853101940399
O 11.365450560912127 1.1466154758337919 13.149452800065623
H 11.830168832184023 1.0674815362943468 12.302846572319199
H 11.26886072004797 0.23046829665267987 13.449963520374112
O 4.297549100109955 1.674757653130181 5.248253069968244
H 3.3771626744563212 1.7602111566388907 5.539034574040658
H 4.676591308749891 2.5516982445891037 5.410315241436585
O -2.6016504513744305 -4.721222728150583 -2.934126240485928
H -2.760375389672437 -4.057246105167045 -3.621809885044726
H -1.658115886121454 -4.925002193161654 -3.018851668266954
O -0.9669802885374612 -0.01888391622931246 -10.440520785639915
H -1.0672371739294801 0.23176162242156073 -11.371161816212878
H -1.3335333265469347 0.7349070666309194 -9.954310986494905
O -0.9393729068281345 0.49654416872414076 -5.123818273058605
H -0.814508695529375 0.6390026993154323 -4.173512084139207
H -0.7257560369325489 1.3550142122655768 -5.519240783214484
O 3.377374972517058 7.831106824960089 4.50909682397749
H 4.0210692810297 8.168138088365675 3.867976771588183
H 3.6750009954595226 8.19860201148101 5.354867468213507
O 2.6395640290812072 -8.920299419285247 3.6885693068862233
H 1.6958212344984085 -9.053946865741285 3.863083646207757
H 3.060889659174799 -9.707906430784135 4.064231193646148
O -3.4692650589679244 2.842942628609225 -10.520451105924856
H -3.2482315471197776 3.5098560615679855 -11.187787615100877
H -4.342108069968548 3.1141499291839345 -10.198653619044764
C 10.048693949905951 4.332935989313849 10.100979359760018
O 9.718068356637124 4.25197947722631 8.953394496873505
O 10.379319543174779 4.413892501401387 11.24856422264653
C -10.492112428682395 -1.720965617978171 -11.811010403861312
O -10.386786143703528 -2.55173204771803 -10.92190466689307
O -11.27872286959966 -1.7912365245498612 -12.762292421997646
O -9.82838023276613 -0.6813982296194898 -11.89707782839164


