%nprocshared=1
%mem=1GB
#p opt=(calcfc,cartesian,maxcycles=5000) iop(1/152=5000) pm6

Title

0 1
C -5.0710522388059704 1.0783507462686561 0.47044029850746183
C -3.8153522388059704 0.1782507462686569 0.19534029850746193
C -4.11845223880597 -1.3219492537313435 0.5608402985074619
C -2.96945223880597 -2.3874492537313436 0.7034402985074619
C -2.52015223880597 0.7359507462686565 0.7384402985074618
C -2.20305223880597 0.7852507462686571 2.097440298507462
C -1.5755522388059702 1.205650746268656 -0.18965970149253808
C -0.9533522388059701 1.2695507462686564 2.508640298507462
H -2.91125223880597 0.4298507462686567 2.840840298507462
C -0.32655223880597006 1.6562507462686575 0.21554029850746192
H -1.7850522388059702 1.178550746268657 -1.2573597014925382
C 0.004447761194029898 1.6956507462686563 1.569740298507462
H -0.7158522388059702 1.2676507462686573 3.5705402985074617
H 0.3943477611940298 1.9193507462686572 -0.5551597014925382
C -1.76045223880597 -2.1592492537313435 -0.1734597014925381
C -0.5287522388059701 -1.936549253731343 0.464840298507462
C -1.8068522388059702 -2.121249253731343 -1.5681597014925381
C 0.6114477611940299 -1.614449253731343 -0.2582597014925381
H -0.4544522388059702 -1.954049253731343 1.5506402985074619
C -0.6479522388059701 -1.8270492537313432 -2.2998597014925384
H -2.74345223880597 -2.290549253731343 -2.092259701492538
C 0.5698477611940298 -1.5506492537313434 -1.6506597014925382
H 1.5072477611940298 -1.351949253731343 0.2991402985074618
H -0.7173522388059701 -1.7640492537313435 -3.3840597014925375
C 1.7791477611940298 -1.082849253731343 -2.4255597014925376
H 1.4739477611940297 -0.9102492537313429 -3.464259701492538
H 2.1252477611940295 -0.1337492537313434 -2.0010597014925384
C 1.3965477611940298 2.0964507462686566 1.997440298507462
H 1.51704776119403 1.8448507462686567 3.057640298507462
H 2.1256477611940294 1.5207507462686571 1.4165402985074618
C 3.94864776119403 -1.4275492537313434 -3.522959701492538
H 4.81734776119403 -2.087049253731343 -3.615159701492538
H 3.4305477611940303 -1.3641492537313429 -4.484459701492538
H 4.26984776119403 -0.441449253731343 -3.176459701492538
C 2.60904776119403 -3.4296492537313434 -2.8992597014925376
H 1.9825477611940296 -3.869549253731343 -2.119359701492538
H 2.06294776119403 -3.373349253731343 -3.845759701492538
H 3.5215477611940305 -4.019849253731343 -3.0234597014925377
C 3.7281477611940304 -2.060049253731343 -1.156659701492538
H 3.9048477611940298 -1.032549253731343 -0.8295597014925382
H 3.12924776119403 -2.623249253731343 -0.4404597014925382
H 4.68244776119403 -2.5769492537313434 -1.3005597014925383
C 3.1110477611940297 3.755250746268656 2.588740298507462
H 3.40124776119403 4.809350746268656 2.534540298507462
H 2.9823477611940303 3.461750746268656 3.634840298507462
H 3.86514776119403 3.1392507462686563 2.091540298507462
C 1.99744776119403 3.9574507462686572 0.40494029850746194
H 2.67914776119403 3.230350746268657 -0.04295970149253803
H 1.03214776119403 3.981150746268657 -0.10175970149253821
H 2.4399477611940297 4.958250746268657 0.368240298507462
C 0.7418477611940297 4.4992507462686575 2.475440298507462
H -0.18475223880597014 4.424250746268656 1.901240298507462
H 0.57844776119403 4.189650746268656 3.511940298507462
H 1.1210477611940297 5.524350746268658 2.4432402985074617
N 3.00114776119403 -2.025349253731343 -2.490159701492538
N 1.7831477611940298 3.586450746268657 1.862540298507462
C -3.55075223880597 -3.8435492537313434 0.6444402985074619
H -2.62515223880597 -2.2736492537313433 1.7424402985074618
H -4.67195223880597 -1.3478492537313436 1.5102402985074619
H -4.83415223880597 -1.6757492537313432 -0.1945597014925382
H -3.7169522388059697 0.17335074626865676 -0.900559701492538
H -3.9132522388059705 -4.043149253731343 -0.34225970149253815
H -4.35435223880597 -3.9354492537313432 1.3449402985074619
H -2.78115223880597 -4.545049253731343 0.8904402985074619
H -5.24235223880597 1.138950746268657 1.5249402985074618
H -5.92805223880597 0.6501507462686567 -0.006059701492538094
H -4.89895223880597 2.059650746268657 0.08004029850746197
O -1.7434942062035519 -0.44536823249944074 -5.4538782456120245
H -1.1354998377565344 -0.30343672320712145 -6.194935363185777
H -2.6105146255412617 -0.5371460909090386 -5.876742717348785
O 2.000751901523731 4.200603843876533 6.253736337196716
H 1.7493618232524115 4.130423647526158 7.186927167352565
H 2.3509284651608695 3.32297159406291 6.03902734188827
O -0.6300504685394852 -5.032984412036175 -0.3141687619274779
H -0.24603773100121426 -5.422165417950908 -1.1141935858820604
H -0.03178173149077895 -5.315356025127081 0.3938585925515599
O 6.073742808100207 -9.108005331757429 -7.457838869822482
H 5.714406464411585 -9.238824395308932 -6.567484377714983
H 5.410041733964579 -9.50849486506824 -8.03927757011659
O 7.460918733749533 6.2076386098254295 9.048146296166486
H 8.318738248375707 6.249308186298051 9.496896431122574
H 6.928289808769136 5.629359920084879 9.614593230632705
O -6.578533995272487 2.7259276014078613 10.20756768152717
H -6.999098474074668 1.8545150666150385 10.25984645614745
H -7.301941955771276 3.3459347214283466 10.384299224017141
O 11.53335194903055 4.485412523657691 11.986162688283567
H 12.473147747039036 4.573481793308138 12.205240342755292
H 11.228965282350904 5.400208438621783 11.88890460166521
O 4.502832431093877 -2.4906278873890435 -6.612013091554756
H 4.7742234709001155 -2.4751506534618626 -7.5421070199527716
H 3.538070420756675 -2.407680987063279 -6.648290073739997
O -6.539873009875149 -6.42697164510238 -9.176445570219462
H -6.320583364960916 -6.459289334274054 -10.119756216560313
H -6.434711423038112 -5.492262733789513 -8.943588884538702
O 1.7531916475343725 -9.708404674273371 -1.856499047948647
H 1.587815347032637 -9.794328691874155 -2.8074118196221067
H 1.0277326905289277 -10.203435915475186 -1.4470905523910158
C 1.9963393699692291 13.577374854812097 2.036582942490902
O 0.9419494235716384 13.89282605881205 2.507295844513638
O 3.0507293163668194 13.261923650812145 1.5658700404681658
C 2.28504114376267 -4.585220927965959 4.3672617589090805
O 2.829214689788477 -3.8615435817458534 3.547541227890415
O 2.8520153240029384 -5.139677593962455 5.315813048283
O 1.083145330297426 -4.875105945973695 4.375104864759133


