%nprocshared=1
%mem=1GB
#p opt=(calcfc,cartesian,maxcycles=5000) iop(1/152=5000) pm6

Title

0 1
C -5.0710522388059704 1.0783507462686561 0.47044029850746183
C -3.8153522388059704 0.1782507462686569 0.19534029850746193
C -4.11845223880597 -1.3219492537313435 0.5608402985074619
C -2.96945223880597 -2.3874492537313436 0.7034402985074619
C -2.52015223880597 0.7359507462686565 0.7384402985074618
C -2.20305223880597 0.7852507462686571 2.097440298507462
C -1.5755522388059702 1.205650746268656 -0.18965970149253808
C -0.9533522388059701 1.2695507462686564 2.508640298507462
H -2.91125223880597 0.4298507462686567 2.840840298507462
C -0.32655223880597006 1.6562507462686575 0.21554029850746192
H -1.7850522388059702 1.178550746268657 -1.2573597014925382
C 0.004447761194029898 1.6956507462686563 1.569740298507462
H -0.7158522388059702 1.2676507462686573 3.5705402985074617
H 0.3943477611940298 1.9193507462686572 -0.5551597014925382
C -1.76045223880597 -2.1592492537313435 -0.1734597014925381
C -0.5287522388059701 -1.936549253731343 0.464840298507462
C -1.8068522388059702 -2.121249253731343 -1.5681597014925381
C 0.6114477611940299 -1.614449253731343 -0.2582597014925381
H -0.4544522388059702 -1.954049253731343 1.5506402985074619
C -0.6479522388059701 -1.8270492537313432 -2.2998597014925384
H -2.74345223880597 -2.290549253731343 -2.092259701492538
C 0.5698477611940298 -1.5506492537313434 -1.6506597014925382
H 1.5072477611940298 -1.351949253731343 0.2991402985074618
H -0.7173522388059701 -1.7640492537313435 -3.3840597014925375
C 1.7791477611940298 -1.082849253731343 -2.4255597014925376
H 1.4739477611940297 -0.9102492537313429 -3.464259701492538
H 2.1252477611940295 -0.1337492537313434 -2.0010597014925384
C 1.3965477611940298 2.0964507462686566 1.997440298507462
H 1.51704776119403 1.8448507462686567 3.057640298507462
H 2.1256477611940294 1.5207507462686571 1.4165402985074618
C 3.94864776119403 -1.4275492537313434 -3.522959701492538
H 4.81734776119403 -2.087049253731343 -3.615159701492538
H 3.4305477611940303 -1.3641492537313429 -4.484459701492538
H 4.26984776119403 -0.441449253731343 -3.176459701492538
C 2.60904776119403 -3.4296492537313434 -2.8992597014925376
H 1.9825477611940296 -3.869549253731343 -2.119359701492538
H 2.06294776119403 -3.373349253731343 -3.845759701492538
H 3.5215477611940305 -4.019849253731343 -3.0234597014925377
C 3.7281477611940304 -2.060049253731343 -1.156659701492538
H 3.9048477611940298 -1.032549253731343 -0.8295597014925382
H 3.12924776119403 -2.623249253731343 -0.4404597014925382
H 4.68244776119403 -2.5769492537313434 -1.3005597014925383
C 3.1110477611940297 3.755250746268656 2.588740298507462
H 3.40124776119403 4.809350746268656 2.534540298507462
H 2.9823477611940303 3.461750746268656 3.634840298507462
H 3.86514776119403 3.1392507462686563 2.091540298507462
C 1.99744776119403 3.9574507462686572 0.40494029850746194
H 2.67914776119403 3.230350746268657 -0.04295970149253803
H 1.03214776119403 3.981150746268657 -0.10175970149253821
H 2.4399477611940297 4.958250746268657 0.368240298507462
C 0.7418477611940297 4.4992507462686575 2.475440298507462
H -0.18475223880597014 4.424250746268656 1.901240298507462
H 0.57844776119403 4.189650746268656 3.511940298507462
H 1.1210477611940297 5.524350746268658 2.4432402985074617
N 3.00114776119403 -2.025349253731343 -2.490159701492538
N 1.7831477611940298 3.586450746268657 1.862540298507462
C -3.55075223880597 -3.8435492537313434 0.6444402985074619
H -2.62515223880597 -2.2736492537313433 1.7424402985074618
H -4.67195223880597 -1.3478492537313436 1.5102402985074619
H -4.83415223880597 -1.6757492537313432 -0.1945597014925382
H -3.7169522388059697 0.17335074626865676 -0.900559701492538
H -3.9132522388059705 -4.043149253731343 -0.34225970149253815
H -4.35435223880597 -3.9354492537313432 1.3449402985074619
H -2.78115223880597 -4.545049253731343 0.8904402985074619
H -5.24235223880597 1.138950746268657 1.5249402985074618
H -5.92805223880597 0.6501507462686567 -0.006059701492538094
H -4.89895223880597 2.059650746268657 0.08004029850746197
O 12.353684975949486 3.7817873758056018 -14.095273571235206
H 12.860581536596921 3.618912293916706 -14.904899992125413
H 12.577773747486862 4.694279610546858 -13.858410555321417
O -14.377508445526484 0.08801260516760973 -15.271609960570753
H -13.719849313950993 0.3978286924239216 -14.630933899185155
H -14.446007569680177 -0.8624205343409589 -15.09569332800276
O 0.5029894286869404 12.557993978588488 -0.2653484362747023
H -0.4363259119538151 12.669840352017124 -0.05524266175195139
H 0.7880199128609805 13.442096993583016 -0.54117705384202
O 11.972418848116382 -0.6113059296881085 -12.776106856280649
H 12.438279410026 -1.4324264913890268 -12.994515457093948
H 12.520221057814208 0.08165518914642933 -13.174452900736677
O -4.529687090848352 2.877864027591975 9.922500762655458
H -4.342383701976462 2.85018415684879 8.972175227813452
H -4.0619216179747415 3.668689947151786 10.230318519842575
O 5.715369325097209 -1.8166263777774618 8.49533207873673
H 5.333916612860019 -0.9261370742219915 8.473196463087143
H 4.9711150080515365 -2.383879521320896 8.746870002316795
O -7.927685332639205 -3.9733309021475613 -8.19522238046459
H -6.9693856676341 -4.060532941449436 -8.081095638231675
H -8.298516843478847 -4.505421339597721 -7.475273978672846
O 0.14265377652098526 7.648609619343707 0.12235926440992889
H -0.6710108723218895 7.789003825959703 -0.3847961978223809
H 0.42222459158398085 8.543115718813862 0.36865368512567087
O 4.459004416364237 -5.450953634494378 6.855445008686359
H 4.709567119431702 -5.217611100145033 5.948947931804723
H 5.150468386629358 -5.046721601278 7.400821929216506
O -4.897739321873647 -0.2013157296483037 11.693616858062045
H -3.9685130459099995 0.04874521436534368 11.807526511901111
H -5.058901286691733 -0.8351405260970131 12.408637761814324
C -7.520358486483438 -8.707761719223 9.1506913014271
O -6.6280217469054215 -7.919784978843462 9.025607101305297
O -8.412695226061455 -9.49573845960254 9.275775501548903
C -3.03839722295568 2.646002179363908 6.011902139966493
O -3.2300168182406788 1.632742121433391 6.666395443450537
O -3.913512931351689 3.2876122682593008 5.419331085285116
O -1.9396973534191455 3.186602749035016 5.840852424527745


