101
 energy: -141.015186773142 gnorm: 0.000211722690 xtb: 6.5.0 (unknown)
C           -3.23888336299750       -4.75218631185146        0.82179117340834
C           -3.83170572873986       -3.67442936372423       -0.07872902894709
H           -3.70257263061508       -5.71252368076426        0.61309964927727
H           -2.17722950024992       -4.85134108582620        0.61466692985153
H           -3.36289655044783       -4.52117652412985        1.88083968141587
C           -3.34553624265664       -2.26234652009903        0.30276258128569
H           -3.53455905321517       -3.90182016029051       -1.10311565257141
H           -4.92519146286942       -3.69770096920753       -0.03529998026232
C           -4.21279569261202       -1.18989562673064       -0.36948549169937
H           -3.46484547697080       -2.14702149936738        1.38741165586501
H           -3.99676458114253       -1.13707039360703       -1.43589000793842
H           -5.26057831639161       -1.47658138414077       -0.26124677106170
C           -4.05421660112714        0.20190692428685        0.27000564706990
C           -5.09565923498258        1.17328544343912       -0.30205755429675
H           -4.24875727632554        0.09904855251508        1.34187873624295
H           -4.94125945870907        1.30554142570578       -1.37404209343649
H           -6.08412263742586        0.73322631350307       -0.16526704571402
C           -5.04333319247595        2.52831531849617        0.39353168519293
H           -5.81610585846375        3.18855830715440        0.00618885033689
H           -5.19622411418783        2.40923572698925        1.46387563054628
H           -4.07550970975658        3.00251081502359        0.23890396133767
C           -2.65211183082011        0.70190240544487        0.09810294121280
C           -1.79064671128535        0.74657941951233        1.19486293502266
C           -2.15124557251784        1.08513017078095       -1.14748904573782
C           -0.47346105091722        1.10466181582899        1.05280623365463
H           -2.17048883482789        0.47386803221489        2.16832639561497
C           -0.83823614895571        1.45528970179006       -1.30249304601089
H           -2.79974178872260        1.07244621403451       -2.01009636102153
C            0.05401742092602        1.44031065344131       -0.21092034421654
H            0.18137767985105        1.11181030919833        1.91117320174176
H           -0.46501089612474        1.72285886718701       -2.28100137228817
C           -1.87512194120547       -2.15080481295823       -0.00880132654694
C           -0.94290955525476       -2.35219136705251        1.00198714511650
C           -1.39623164197273       -1.92344157574235       -1.29230925092720
C            0.41218385669934       -2.33008613858390        0.74116433494813
H           -1.27909869661152       -2.57045243301465        2.00455062747261
C           -0.04062587383726       -1.85388990927158       -1.55116744301327
H           -2.08206902638783       -1.82212716213545       -2.11842873998145
C            0.88528496937017       -2.07003991696798       -0.53995014643796
H            1.09990088080611       -2.58047091315260        1.53644297448589
H            0.29177689567272       -1.66398356067760       -2.56062272924063
C            2.36888319503291       -2.00902717877132       -0.79871584174420
H            2.58132490236892       -1.23232708353335       -1.53910082534905
H            2.87865681191372       -1.74735765454558        0.13211795550855
C            1.42268412517397        1.76783792592629       -0.36742939373867
H            2.10533449387568        1.42777586656030        0.39483099276489
H            1.81695970685382        1.77748573607551       -1.37185782737445
C            4.44946570380060       -3.14172121698509       -1.22746367890900
H            4.91508045823390       -4.04934187398292       -1.60739880656109
H            4.78239162569399       -2.29579029580358       -1.82876268146266
H            4.76715891886809       -2.99242328957606       -0.19612888631613
C            2.59564011806107       -3.53253836596605       -2.69249406263382
H            1.51090540135351       -3.75699916576244       -2.74756920443635
H            2.84224029611028       -2.67828584591387       -3.31982688444597
H            3.10966061714638       -4.41851810456138       -3.05840019155315
C            2.56256293861138       -4.42231943285282       -0.47831956945952
H            2.83353284103043       -4.27563818837559        0.56368743121760
H            1.46678639473444       -4.54426447215017       -0.55167423019748
H            3.01253649217066       -5.33596676044706       -0.86009043959905
C            3.06772359133676        3.97908926709615       -0.20668890985553
H            3.28552900370098        5.03353024360216       -0.00964497212960
H            3.66023848559286        3.36761108990063        0.47128016452434
H            3.36032224639560        3.75019133398303       -1.22970055109060
C            0.81779636755862        4.40309827077872       -0.96171522489359
H            1.15735624488054        4.21290808759550       -1.97792115636697
H           -0.20863116381900        4.05147981443285       -0.86562517524713
H            0.84222073677693        5.48166091612635       -0.77963163693821
C            1.23677511762904        3.92320690788333        1.34971451443336
H            0.19994596666156        3.61248893150892        1.46592499685350
H            1.85552141169133        3.33871623032355        2.02747870853398
H            1.32223148902757        4.98127885863662        1.61502602735533
N            2.98659467528472       -3.27809687333119       -1.29855495802314
N            1.65812785558062        3.68993567877871       -0.01879519189307
O            0.34709287656094       -7.48230242555456       -0.26228194233712
H           -0.50993049728943       -7.89318087614027       -0.45554795931738
H            0.13855762629573       -6.52692633845230       -0.35973689598068
O            0.67310810000748       -5.28078495638865        1.93063461300418
H            0.18151094469746       -4.98366035041109        1.14922142536548
H            0.74992701539698       -6.22990826342318        1.79280857153799
O           -5.85604320785777       -3.15362732319911        2.71557874070767
H           -5.28366766070112       -3.73425270863376        2.20532553388042
H           -6.45802330101967       -2.73514980357395        2.07979934958794
O           -5.19123048518583       -0.61882621664336        3.39823306050080
H           -5.40774317204800       -0.47830807119760        4.32098148841213
H           -5.24978936768985       -1.58799813339343        3.25645689756314
O           -7.19098700169376       -1.03011116386073        1.44111517373547
H           -8.03252545923931       -0.76182099271869        1.81244222203032
H           -6.49923014901476       -0.62684303324826        1.99274584706577
O           -2.32885690296924       -7.73622566107287       -1.14728174884331
H           -2.25431205178198       -6.77848275055916       -1.38480313500169
H           -2.44572890377882       -8.17838354459650       -1.98948415485453
O            2.51174776938748       -0.18063219915777        2.09322362550287
H            2.73411406502392       -0.56858227802381        2.94257264755021
H            1.67473463360531       -0.57811202312413        1.82177759220485
O            1.92083967121211       -6.64972524558542       -2.50237206069832
H            1.50221954118270       -7.14904146200610       -1.78111670163559
H            1.22963647108992       -6.02817354233495       -2.78542764277950
C           -0.78300625178400       -4.89552196735675       -1.86675617018665
O           -0.04722232072641       -4.55191163076196       -2.84280224153787
O           -1.97287091388093       -5.25738873672049       -2.07916430514581
O           -0.30246185073765       -4.90904904631411       -0.67843224599148
