101
 energy: -141.120017259630 gnorm: 0.000702709550 xtb: 6.5.0 (unknown)
C           -3.17223414572584       -3.51426095849488        2.17852364567978
C           -3.71244987370863       -2.89427762189514        0.89662291635920
H           -3.52009070013097       -4.53896908341974        2.28026718355714
H           -2.08504571062729       -3.52677534932953        2.18520584280774
H           -3.51172396504476       -2.95197197906088        3.04604755105002
C           -3.26801674959335       -1.43215784335016        0.74137128107954
H           -3.36986359711491       -3.47513656123284        0.03872203472544
H           -4.80630081782426       -2.93017052378801        0.90494470512550
C           -3.87072718158001       -0.80775763099866       -0.52923645889782
H           -3.64706543417281       -0.87711016416944        1.60690980610125
H           -3.31401795439559       -1.14514003744210       -1.40418888067593
H           -4.89862727326572       -1.16399617957912       -0.63711910461383
C           -3.91084902185048        0.72853412511130       -0.49433400722753
C           -4.58747717741125        1.27647187892612       -1.76205304766330
H           -4.52600485558110        1.02228203299700        0.36368524083198
H           -3.92158253288824        1.13474255876398       -2.61653108030120
H           -5.49626510243926        0.70087432090305       -1.95110939458077
C           -4.95725816182210        2.74990574050571       -1.62257938558056
H           -5.49871295306632        3.09806317019882       -2.50112912164217
H           -5.60322481962221        2.89413461564982       -0.75954931066613
H           -4.07303886922935        3.36811129483795       -1.48520507254140
C           -2.54196368131665        1.33140217539442       -0.31351691560733
C           -2.28568116465806        2.18530382701729        0.75343671370483
C           -1.49795312558794        1.04184407505604       -1.18597116286262
C           -1.02323388978062        2.70626575917755        0.96901738617692
H           -3.08131597562466        2.42581052758837        1.44328901315362
C           -0.23254994319696        1.55771488061831       -0.97336022219884
H           -1.66274060612868        0.38724771974141       -2.02772781581042
C            0.02237401829888        2.39502329227796        0.10719750119034
H           -0.84073177040261        3.33433296455165        1.82693084435043
H            0.56664898398559        1.28686202042672       -1.64779171999037
C           -1.76502077102816       -1.33679041229285        0.73784359623573
C           -1.09987913437852       -0.58360137921516        1.69398069962251
C           -1.01010874717434       -1.98857172998382       -0.22790935121618
C            0.27300400889837       -0.45310580786017        1.66736487323635
H           -1.66436631867356       -0.08519219019385        2.46785390714779
C            0.36554122012757       -1.88558592273712       -0.23998536135424
H           -1.49696141912576       -2.59784866323071       -0.97516465198867
C            1.02471244469466       -1.11293570640515        0.70499805417909
H            0.76206522389935        0.17055854189812        2.39930555699261
H            0.93042322587719       -2.41242078381443       -0.99663579492852
C            2.52142064002338       -0.98560160666968        0.68585018177155
H            2.89437581017977       -1.14169598234402       -0.33031356469607
H            2.82048006376475        0.01035545379215        1.02794089434142
C            1.40669529021102        2.90741333821624        0.38267729529155
H            1.56245726789425        2.95955133038297        1.46622820639784
H            2.14475463057594        2.21756685490077       -0.03038590859984
C            4.66370948139862       -1.67189243506892        1.52019478235522
H            5.18614763342191       -2.34447612661711        2.19712215815119
H            5.04421144977563       -1.81449000836933        0.50990081736458
H            4.82805982023275       -0.63733996377563        1.82314943033566
C            2.97368884131423       -3.34071211764423        1.12258958119823
H            1.92078409064375       -3.58023596407584        1.30443501102820
H            3.21950640701801       -3.44906950247255        0.06830494530658
H            3.57963940958128       -4.02048980763724        1.71816610469760
C            2.76316901432648       -1.82388223112256        2.95763051970169
H            2.87501604268877       -0.79059249359718        3.27501069787486
H            1.72186285118639       -2.14542525364242        3.01821268009827
H            3.35620964411375       -2.48026780439673        3.59130887603222
C            3.01090330158270        4.69006705455879        0.32320259872670
H            3.28307753143882        5.65146462252501       -0.10680885924694
H            2.97877192084032        4.78787608462196        1.40590352303455
H            3.78061962752821        3.96297566312812        0.07406251259143
C            1.72587004740006        4.20505343569551       -1.64930906998838
H            2.44395653109578        3.45898967801159       -1.98327113330309
H            0.73184424706440        3.96079982248237       -2.02520380989301
H            2.01517202237561        5.17546816477480       -2.04887964197168
C            0.68645881357615        5.24138119374887        0.24131104583632
H           -0.26502883484774        5.02225141926666       -0.23629202231366
H            0.57192162578392        5.20365947312804        1.32854080175426
H            1.00367634435464        6.23933380765950       -0.05336648466731
N            3.22439974875307       -1.96315775790396        1.56795215660201
N            1.69869915731690        4.26134449461249       -0.18161604290509
O            3.96150785267915        1.40961143235104        1.87372634597339
H            4.65140824870385        2.03309767682421        1.60421864975348
H            3.34957624454532        1.96903584891660        2.43413576856150
O            4.30402571573992        4.59905093342532        3.29230024216323
H            4.72755492098971        4.50513422651311        4.14492333643477
H            3.48297454161153        3.90671285980750        3.31043477183823
O            2.41451894552542        2.98791257633967        3.26472809192133
H            2.34358084687850        2.58116199406288        4.12663267482129
H            1.27285518171566        4.01671761684298        3.25923513111519
O           -2.91697920599474        3.53285782642319       -4.42183290124251
H           -3.14095351431035        4.13831069316558       -5.13133593786360
H           -3.73867928025710        3.16794916544377       -4.08141359305736
O            0.53813099101269        4.72286603195401        3.21028448983171
H            0.67186674726328        5.27518077468939        3.97976856255854
H           -0.52090217952919       -5.92068797778264        4.28844490935063
O            5.71217061726323        3.54027734473471        1.33079304731391
H            6.62677801485676        3.53072839771161        1.61339340510225
H            5.20623153793155        3.99473232128745        2.06039399661675
O           -1.41009457427124        4.19959740339002       -2.15653232977800
H           -1.71902947335792        3.47729816962558       -1.60200201189049
H           -1.81892223664447        4.05481191895334       -3.02320760196817
O            4.05060135817341       -4.52248112763953        3.75367194273808
H            4.40250953015271       -5.17506291842090        4.35953798251024
H            3.06683726143842       -4.69206531387093        3.76000308598446
C            0.44857152773181       -4.59451487093259        3.30471909455020
O            1.47209526988984       -5.05086553852186        3.83695059394253
O            0.34761969608073       -3.66516384344517        2.50539592563001
O           -0.73976120476221       -5.22110802923777        3.66036297947316
