101
 energy: -141.081774803104 gnorm: 0.000209854542 xtb: 6.5.0 (unknown)
C           -2.95406990325840       -4.18638536565171        1.93702567342347
C           -3.74941701085667       -3.18607565647095        1.10658006669977
H           -3.37919920291784       -5.18371421201948        1.84758531282595
H           -1.91958185350880       -4.22082436625254        1.60200733589957
H           -2.95701647465526       -3.90333722868292        2.98782506855929
C           -3.19944235644094       -1.75815201248148        1.25374548651001
H           -3.71447209712986       -3.48482060969206        0.05697671327119
H           -4.79610864118906       -3.20308793236387        1.41614089514501
C           -4.13414809205761       -0.75245571951072        0.56457878508701
H           -3.17351624431747       -1.50630109663591        2.31826840126283
H           -4.05594232709400       -0.85810176721217       -0.51890618005434
H           -5.15509340347479       -1.00407874211503        0.85704128739717
C           -3.88085184971772        0.70413749901910        0.97747262475226
C           -4.97300559154708        1.61483324315487        0.38971174194771
H           -3.95453668873158        0.75532451205558        2.06722961530183
H           -4.91683783525134        1.59738203285120       -0.70273382454353
H           -5.95066050234169        1.23238427373452        0.69578148914851
C           -4.84511011890659        3.05396770317749        0.87366470812546
H           -5.65625613485705        3.66280831168388        0.47996809348026
H           -4.88233658639577        3.08796061952724        1.95951085523728
H           -3.90090308104383        3.48445656402160        0.54899046390731
C           -2.52058768760012        1.21683179206391        0.58094170458970
C           -1.71410058500372        1.82651765394633        1.53333683478763
C           -2.04477176334873        1.13343004239371       -0.72192477596248
C           -0.47953770771297        2.34531604009134        1.19213822145058
H           -2.06044502676471        1.89022681152619        2.55421877701307
C           -0.79091214585806        1.60767914782760       -1.05725463714848
H           -2.64713671929781        0.67250206185545       -1.49032399141515
C            0.00286748402451        2.24328907478866       -0.10795731030221
H            0.12622098139152        2.81866671143201        1.95303354088140
H           -0.41737651963139        1.46757275508888       -2.05978840219468
C           -1.79724354021952       -1.67523209849356        0.71144377596755
C           -0.73038778794382       -1.36486863423270        1.54302671434545
C           -1.53625339918352       -1.87508848083573       -0.63944609849363
C            0.54864750323173       -1.22787620611841        1.03691901190770
H           -0.90831543557498       -1.20384025619557        2.59616981308602
C           -0.26849562968801       -1.69992683314413       -1.15522429280896
H           -2.34138254794061       -2.13144517825892       -1.31299469275931
C            0.79978627309389       -1.37486618213710       -0.32347281417157
H            1.35869379516358       -0.96299213779026        1.70181241929760
H           -0.11806413111698       -1.76069678796665       -2.22172665928559
C            2.14850722675261       -1.05350506669783       -0.87909141856342
H            2.04993248431696       -0.46919571927827       -1.82255783006533
H            2.72140954475984       -0.47083483493497       -0.15784454979036
C            1.36597458114856        2.76104221210932       -0.45379573932105
H            1.95726206767654        2.87065714961189        0.45822657697140
H            1.90335028955552        2.06478056878510       -1.12432213861978
C            4.25143777075964       -1.64809348897405       -1.83228445134003
H            4.91177844326586       -2.44370815826829       -2.16877330532021
H            3.96615470184861       -0.99632762411487       -2.67198202309962
H            4.74080892565547       -1.03298547082072       -1.07864568701649
C            2.35026020215653       -2.95817357234495       -2.37577944910975
H            1.43397831675902       -3.42276332621710       -2.01922353484257
H            2.13136500211281       -2.24658014536687       -3.17583948505874
H            3.02216435314489       -3.72884718658979       -2.75049393527454
C            3.27377813742567       -3.07944126488348       -0.14456298808095
H            3.80382328310856       -2.51294196465508        0.61917895243573
H            2.33577743197968       -3.44409890194972        0.27326126234833
H            3.88738070459592       -3.92695918974009       -0.44817959000262
C            2.79757009611586        4.37932182095839       -1.47360804360808
H            2.85425249044085        5.28143937021344       -2.07611319746216
H            3.36679356413394        4.50363015995653       -0.55471882642322
H            3.20221628199063        3.52603479523718       -2.04232661730406
C            0.63924640922690        4.02063208144071       -2.42405782727723
H            1.05544819601419        3.22895260143964       -3.07150326569333
H           -0.41230436468317        3.82844052987933       -2.22721193273398
H            0.74671064646906        4.96998948344388       -2.94312727218246
C            0.82571432354042        5.13172583434828       -0.31153547551946
H           -0.20987472815720        4.89768678094849       -0.06708311360707
H            1.39588100376216        5.21715400374621        0.61276481634511
H            0.86593515195736        6.08094555456215       -0.84339039812584
N            3.00119492751739       -2.20977491090108       -1.29264061142497
N            1.39062161641638        4.07648996758375       -1.16020742435281
O            2.16483926455276        6.36774542390414       -3.85703076393580
H            2.50553036896724        5.51157809165509       -4.23945121637160
H            2.51313149110276        7.05196651739315       -4.42884490900644
O            4.49050668581389        0.91810741359273       -0.28756020966791
H            5.21527209303305        1.54337698269202       -0.28629642418929
H            3.98400629349932        1.14233657851981       -1.14231640576218
O           -5.80759011327739       -1.97621139794856        3.88138105775708
H           -5.23051318217198       -2.74229866684575        3.86795355828800
H           -6.34907500008237       -2.03943496063826        3.07529526478633
O           -7.32731004719672       -2.41775521609682        1.60877786921941
H           -8.23407237752161       -2.60173421633459        1.85983781879694
H           -7.37261913888177       -1.87918649566586        0.79951126740653
O            3.10447419556894        4.12280913866912       -4.87603445695209
H            2.97774900827866        4.04335210719068       -5.82183222692113
H            2.68945469281161        3.25010773951470       -4.51186346313655
O           -7.38083810063344       -0.93908837442018       -0.74290020601775
H           -7.18513832568461       -1.44639075552728       -1.53360438646025
H           -6.78287252501222       -0.18542298445729       -0.73254102660477
O           -4.19778687187935        0.24542917779628        4.23532797068822
H           -4.79416937683674       -0.51151130550758        4.08849254552398
H           -4.43380347352732        0.59784393870802        5.09439178202674
O           10.58369352798405       -3.52548805066746        6.92628457121534
H           11.00575362608547       -3.43969511246676        7.78336733496220
H           11.05512172719398       -2.95138163692580        6.31939235567552
C            2.52751972713059        1.16539237452162       -3.37233751524779
O            3.19462581729659        1.64527001446157       -2.37152376909222
O            1.94714185288136        1.98134259892310       -4.15759716446368
O            2.40281661050929       -0.08868914072038       -3.49972377290315
