101
 energy: -141.015099364597 gnorm: 0.000164468421 xtb: 6.5.0 (unknown)
C           -2.15611760735737       -3.91830452531719        1.91894115195034
C           -3.02438536518477       -2.97596433938778        1.09807356693181
H           -2.55938337752947       -4.92870666055304        1.88590216445105
H           -1.13248803397032       -3.93764177963319        1.55084797507497
H           -2.11102369721502       -3.59382790077105        2.95531118678178
C           -2.51066035423879       -1.52823310294030        1.14281816460084
H           -3.06407876192440       -3.32002746799227        0.06179746144435
H           -4.04750469138301       -2.99206847220445        1.48742128560523
C           -3.45588510731080       -0.61124057908006        0.34766709420379
H           -2.50902093984382       -1.21136651606693        2.19037448908137
H           -3.29241561950105       -0.75924180433235       -0.72111296947267
H           -4.48616793354006       -0.90500476453242        0.56434985695286
C           -3.31847711709405        0.88095709505425        0.69095915011470
C           -4.37431253748902        1.69091464226031       -0.08231167067961
H           -3.52575249885304        0.99571811392948        1.76110866285871
H           -4.19165447662183        1.60318598868116       -1.15491630444299
H           -5.35630328391314        1.25862238910854        0.11982039928786
C           -4.38876140457674        3.16383682842427        0.30854398322274
H           -5.19388693345045        3.68237293908816       -0.20587320842246
H           -4.54391215564263        3.27143521650776        1.38038729143175
H           -3.45276053571782        3.64481971879646        0.03739512625323
C           -1.93365144321036        1.39898069790274        0.42582115730755
C           -1.17601531429866        1.95718304574031        1.45758461594673
C           -1.35444155531640        1.33306998196096       -0.84357095097233
C            0.11057503031328        2.40058441498070        1.24887039530491
H           -1.59768856379462        1.99656360076378        2.45341188460490
C           -0.07153646224135        1.77146169782480       -1.06792370936933
H           -1.91219430645324        0.89348415184160       -1.65806968699982
C            0.71384710070235        2.30201347330111       -0.02175331360890
H            0.68678176367284        2.79303798044374        2.07388134512089
H            0.36149610008003        1.68444343673345       -2.05372670083782
C           -1.09943420016355       -1.43945658982931        0.62429739502811
C           -0.08464337970861       -0.90661055502442        1.40706616432839
C           -0.78121596884656       -1.88099047076806       -0.65377724544841
C            1.20897259392570       -0.81215136061107        0.93044479182957
H           -0.29684882152467       -0.59287890275216        2.41593961429598
C            0.51220281810066       -1.80877379100257       -1.12564153608016
H           -1.54571811290592       -2.30749871506210       -1.28666749931965
C            1.52606303949903       -1.27974103525372       -0.33657142289071
H            1.97552264059198       -0.39557040563386        1.56584649480896
H            0.73641969654067       -2.17382176285678       -2.11967841467826
C            2.92907607563742       -1.22367056418866       -0.87846219253804
H            2.88155061387147       -1.29849877135417       -1.96901626722503
H            3.39937880818639       -0.27194088321492       -0.61476156615019
C            2.04522621096013        2.73040910268049       -0.24106402676570
H            2.67944178727119        2.84327383087848        0.62369366978917
H            2.53742143205237        2.37110947999150       -1.13103773213885
C            4.99768816376420       -2.40083188216101       -1.28921624033165
H            5.65858584607958       -3.18533721972921       -0.92019731040599
H            4.68806127630493       -2.64694991221319       -2.30412403930875
H            5.53436151575165       -1.45278363256426       -1.29752295036169
C            3.12789944062155       -3.61473761968049       -0.42403745334746
H            2.33153836554705       -3.65727440435331        0.34843789352163
H            2.68241556587958       -3.77476301688688       -1.40325744864391
H            3.84796977166505       -4.40129462905992       -0.21831782502084
C            4.31616689454918       -2.04298472009164        0.96358704144920
H            4.69060814038847       -1.02349500569819        1.02960817365693
H            3.52711570053563       -2.21252375376778        1.71731148171662
H            5.12080474834498       -2.73660936816753        1.19437126857188
C            3.42702102803311        4.96639545989727       -1.10334714994066
H            3.50992457996994        6.01820524796461       -1.39357537825897
H            4.07716701180891        4.78868874222414       -0.24800996637110
H            3.76508425515393        4.35186748208010       -1.93578113891876
C            1.17381239641767        4.76484064596702       -1.90770355239289
H            1.51900654220657        4.14638588065432       -2.73201685829602
H            0.17551449041919        4.44299805397067       -1.62529262277020
H            1.12888110368904        5.80316692085510       -2.23884786660715
C            1.57459716141557        5.41779452390417        0.35491845227923
H            0.58568796815451        5.07283505294656        0.64760523779967
H            2.25036788114263        5.31577488492903        1.20165564595329
H            1.50517189801267        6.47351040617718        0.07983407446286
N            3.82825426976952       -2.31864503285465       -0.39808120264964
N            2.05685271523271        4.63172282922839       -0.76546646661079
O           -1.96477288729979        6.36111320094975       -0.95996150626453
H           -1.84946197232139        6.00559413307476       -0.06589768930524
H           -2.10872996955662        5.58170531848113       -1.52936826645907
O            0.11199527695666        7.77918817714033       -1.77668968872151
H           -0.08800956248256        8.70437104686088       -1.62725173744483
H           -0.64816820154306        7.26928931343941       -1.39494471293077
O           -0.45391822287941        4.28367024397567       -4.54908435915106
H           -0.79259772401112        4.07218770888898       -5.42062130468551
H           -0.48507904435561        5.26500144442779       -4.47892962643878
O           -0.88606020993954        6.90552648613097       -4.16709856463478
H           -0.38913470157489        7.26241863094693       -3.40391752953126
H           -1.80383763726937        6.88378580563900       -3.88388598075927
O            5.90146616482492       -4.77975305562355        0.74107137833234
H            6.61412801495084       -5.34448855208316        1.04050178902948
H            5.18149904478517       -4.90110448524208        1.42037793406929
O           -1.61223000079133        5.05830142852156        1.48636061131133
H           -1.55946713353036        4.09144961264527        1.48428493475121
H           -2.24024721025999        5.30693664144934        2.16748080167142
O           -2.13573837757604        4.05901119318326       -2.42586984982544
H           -1.54743369788629        4.05576542215289       -3.20850532267908
H           -2.06639837043872        3.18726889308913       -2.02652067690649
O            3.94748007546952       -5.07459984353302        2.48944341578115
H            3.48593119773219       -4.22035738327482        2.77740942793245
H            3.21294169056367       -5.61838049851001        2.19538026309064
C            1.36497053615583       -3.21529426774917        2.73739151737286
O            0.42670285874979       -2.81419620467657        3.46791207293801
O            1.12370256008981       -3.85066628696973        1.66138827383217
O            2.58346289256798       -2.95503440089116        3.05457994185992
