101
 energy: -141.181581294669 gnorm: 0.000316463032 xtb: 6.5.0 (unknown)
C           -4.36890477505220       -4.15147100420521        0.80746824886390
C           -4.54876927667836       -2.72289961493202        0.30929188929501
H           -4.97662810182940       -4.83736682931057        0.22192186336996
H           -3.32781117980853       -4.45506135223184        0.72355405892954
H           -4.66820329535949       -4.23399863927781        1.85017726114843
C           -3.73015968408018       -1.71579787804203        1.13095859619497
H           -4.24461968126907       -2.66533739677246       -0.73742515896211
H           -5.60471583785509       -2.44845730061928        0.36527409911413
C           -4.04559311857750       -0.28220668206227        0.67221169337839
H           -4.03429560669464       -1.80902585076063        2.18010307363660
H           -3.95040686541246       -0.22081577992727       -0.41189683315236
H           -5.09111884733649       -0.07888974921602        0.91759310598304
C           -3.16194575549071        0.79459265086169        1.32841441745083
C           -3.90283448655640        2.14205840100734        1.36603378760058
H           -2.96034109650148        0.49436675543784        2.36285269871529
H           -4.14003476144588        2.45357799363204        0.34702449651530
H           -4.84592101836619        2.01300731198540        1.90260930356997
C           -3.08399308814692        3.23040282269891        2.04937298992962
H           -3.64479958104762        4.16154487007471        2.08455454901587
H           -2.83709780287624        2.93923575083557        3.06809817818583
H           -2.15573611306312        3.40650534214107        1.51087885486955
C           -1.84231242468594        0.95615355699968        0.61372092117639
C           -0.63744943245122        0.82438428102713        1.28907424928431
C           -1.80005913112913        1.27122527696038       -0.74094312477834
C            0.57094201094735        0.96345623064209        0.62911484016648
H           -0.63968208665832        0.59923021366538        2.34588896555065
C           -0.59773491641992        1.40586717381816       -1.40467892617782
H           -2.71925825967233        1.41138158397142       -1.29178011320276
C            0.60482626280012        1.24455793494852       -0.72840677347588
H            1.49569868469823        0.85377287500836        1.17498220145681
H           -0.58737256627802        1.64069672047687       -2.45913744866009
C           -2.25912095440645       -2.02172807080644        1.04546768609150
C           -1.56251049945641       -2.42341687021123        2.17757169780517
C           -1.55502322360818       -1.87606035956796       -0.14320613912584
C           -0.19709937364043       -2.63347030913653        2.13585204138714
H           -2.09140433544402       -2.55615080444403        3.11092427801322
C           -0.18603345407786       -2.04814209641915       -0.18167746842328
H           -2.06879251560852       -1.58411262628583       -1.04498232759459
C            0.51179306149139       -2.42557324035182        0.95979051241345
H            0.32739536126104       -2.92433524845943        3.03509568624742
H            0.33886734297393       -1.85082207303882       -1.10079057391004
C            2.01268909624172       -2.50146461541494        0.96609334513209
H            2.40486676189160       -1.67985744573605        0.36939880002941
H            2.37920501901794       -2.39502717321962        1.98916331804699
C            1.89752004730874        1.44970084214692       -1.47231887673645
H            2.09485729152301        2.52866382464760       -1.52808546537944
H            1.82634908317509        1.03198516162226       -2.48235817735923
C            4.07018762681980       -3.65473946692076        0.53262973480496
H            4.53520201904459       -4.51999558814524        0.06586149642099
H            4.41146489943609       -2.75464048920730        0.02118045803782
H            4.35510368872977       -3.59162957713385        1.58053054259151
C            2.24350697602488       -3.94811756115477       -0.98979363535105
H            1.17801402043979       -4.13317643633599       -1.10163121144794
H            2.51148769537302       -3.05686718157862       -1.55207269912794
H            2.80120714704068       -4.78892676670410       -1.39704323786658
C            2.14057941191873       -4.90688755585973        1.20754164452654
H            2.43259034166040       -4.77741443695513        2.24845639594795
H            1.05653576395065       -4.98436156482184        1.14300250158961
H            2.58966804845061       -5.81836350185171        0.81811033442105
C            3.00937721880837        5.31897673970288       -0.92536895314048
H            2.93706352595255        6.35199633297614       -0.55079403706089
H            3.88074074841468        4.84624706291107       -0.47586917728463
H            3.14386552923100        5.35116143252647       -2.00633072508665
C            0.64241613643782        5.07497159484897       -1.22166039412210
H            0.78171403734035        5.13123023380804       -2.30098868298482
H           -0.19676232706560        4.41144095021441       -1.01276654001836
H            0.39741726720166        6.08224372871176       -0.84823593618831
C            1.67513915010567        4.37880980396261        0.82008586555661
H            0.83133979655333        3.71807394613679        1.01593534164416
H            2.57762171435726        3.93119722953267        1.23164491837029
H            1.49623221465791        5.34108617261750        1.32469783942171
N            2.60435066702363       -3.75853976193543        0.42210627326069
N            1.83635661388110        4.52783918253664       -0.61294984706516
O            5.01751850274988       -2.69624991454805       -2.83113716682072
H            4.26352772839870       -2.09066094104125       -2.68031945127560
H            5.74966416916032       -2.29032327781689       -2.36054667769083
O            6.71909108481064        0.77642405693399        0.53585591918453
H            6.16212971936872        0.25530011237052       -0.05862742499103
H            6.22494819213465        1.59729300461122        0.68385633582545
O           -0.41828281187009       -4.06618957825489       -2.58134165201217
H            0.02625270675342       -3.29121376601807       -2.97284234805174
H           -1.30000376151108       -4.07938064067151       -2.95467419439234
O            4.71586707081666       -0.32007325530417        2.12840204413313
H            5.65964750669911       -0.10308494803494        2.09942212066097
H            4.50877763561886       -0.48097842441361        1.18246360407753
O            4.45760623207251        2.38497722035798        1.16623729833176
H            3.96175791607880        2.07024761175622        0.39768734699535
H            4.36772120219400        1.68064853888296        1.82239997376539
O            0.93219174066634       -1.89100674054583       -3.66076181773046
H            1.38855939074240       -2.17434101255381       -4.45532528952287
H            1.61487803201583       -1.45909146191136       -3.11629415553659
O            3.95690898210340       -2.53098205315666        3.48784143804746
H            4.20853169200966       -2.43138608907358        4.40649110253248
H            4.25489736853443       -1.70756470085269        3.04042680823271
O            4.84965523416202       -5.30214046123365       -2.01856660669499
H            4.90221736120104       -4.38024636809315       -2.34752802911651
H            5.32464804650807       -5.83231056429473       -2.65883403041401
C            3.52359436922473       -0.31677507275481       -1.22951525655248
O            4.48145282999432       -0.71440964846617       -0.54837648724806
O            3.01756866876956        0.88504578759023       -0.80886962295145
O            3.01502850217070       -0.91555232972048       -2.18621605432000
