101
 energy: -141.110706683070 gnorm: 0.000193669539 xtb: 6.5.0 (unknown)
C           -4.52889126720063       -3.19344234646378        1.04900757001010
C           -5.01200186915529       -1.85167840930218        0.51437763676528
H           -5.14858909528108       -4.00327221004767        0.66696704028188
H           -3.49518711058758       -3.36878356937311        0.75876792360681
H           -4.58864988937030       -3.19359947813555        2.13443142084419
C           -4.16119651428086       -0.68802089314211        1.05232233593597
H           -4.97886876927554       -1.85178450796508       -0.57809066327456
H           -6.05248744933974       -1.69981194846410        0.81375003508354
C           -4.83387149842991        0.64725248124939        0.69534780865713
H           -4.12897548027287       -0.77519173098594        2.14294375018233
H           -4.84637962282834        0.77918674042042       -0.38743850683669
H           -5.87375317628137        0.59209495537424        1.02741833504337
C           -4.19518827557867        1.87622565826815        1.36340873440250
C           -5.10122091029494        3.10830367088156        1.21317296054698
H           -4.08892857437129        1.66021806168910        2.43127795038938
H           -5.20176576911512        3.36365116795903        0.15600026481180
H           -6.09668570952076        2.86499309110558        1.58900915211105
C           -4.55977872678731        4.30915510178567        1.98052149560532
H           -5.20593117754946        5.17355359144714        1.84424191093613
H           -4.50690053686572        4.08604048756063        3.04347900299929
H           -3.55824408351583        4.56614046959814        1.64025367101231
C           -2.82982504739714        2.14685333846391        0.79478465902756
C           -1.70462336322758        2.12156526669438        1.60703496265490
C           -2.65242495325953        2.37010279907964       -0.56715515987455
C           -0.43740504823225        2.22707958484265        1.06587524114316
H           -1.81915735918258        1.96619561208402        2.66876334443448
C           -1.38661384447132        2.43235930652789       -1.11777345458863
H           -3.51060850330268        2.42632472391421       -1.22028825162142
C           -0.26036133507835        2.33980539866541       -0.30664671363968
H            0.42249381231311        2.15883199609855        1.71651498918019
H           -1.27188678850606        2.48183635278613       -2.18876663736078
C           -2.74878332278204       -0.81815103339832        0.53851510187906
C           -1.72426726219022       -1.15464666389510        1.41320321499006
C           -2.43231508772915       -0.65042002021136       -0.80350093346814
C           -0.42676512368342       -1.31182189250171        0.96566872869097
H           -1.95014203631303       -1.30315379727867        2.45683352949450
C           -1.13024659860585       -0.76934145811508       -1.24928864866697
H           -3.20651492945807       -0.40914001428978       -1.51781291524098
C           -0.10929991467885       -1.11498793496188       -0.37159765086688
H            0.34040376770050       -1.59697182751302        1.66954944543491
H           -0.90496185463142       -0.56990287126267       -2.28643009695972
C            1.31478377375583       -1.21668108951064       -0.84707455139937
H            1.51189462438575       -0.47345332830958       -1.62131473145049
H            1.99039050482355       -1.04041805818080       -0.00688678315566
C            1.10050454085925        2.15950628961807       -0.90937161411083
H            1.75332662916621        1.69236300240699       -0.17119947970443
H            0.99128971280604        1.49631207673028       -1.76845807709274
C            3.09581908327104       -2.39812562197809       -1.90930605425677
H            3.36334170775754       -3.26224578971986       -2.51187274158264
H            3.19267052653080       -1.47124557336622       -2.49743986728920
H            3.76666579955807       -2.33887480287466       -1.05460717962408
C            0.84739520832064       -2.83149057535930       -2.59934893671910
H           -0.18704771466076       -2.90179909160209       -2.27130912709519
H            0.94592802462850       -2.04259631916722       -3.34183847139020
H            1.14083012399529       -3.78970088965606       -3.02644022846767
C            1.58976802580380       -3.60771393631298       -0.46167185255649
H            2.19027148499228       -3.39131567121899        0.41831220248836
H            0.54865904757815       -3.70963738187247       -0.16049994800225
H            1.91909411744715       -4.54533317425118       -0.90330854971922
C            3.17489065280815        2.93459367394813       -1.77229782271129
H            3.67661774843610        3.70363314669110       -2.35399061969204
H            3.74619896879369        2.74964743597671       -0.86489847757499
H            3.13498852474593        1.97918158279273       -2.35594010311542
C            1.13136563913010        3.86583535544721       -2.63089983054895
H            0.97253271013472        3.02131451204019       -3.31613747335464
H            0.17568892803766        4.30440468202922       -2.35546326465186
H            1.74189053800725        4.62568462986804       -3.11344013566780
C            1.84881401867941        4.42505265052593       -0.40652141979766
H            0.83929073445132        4.78257162901432       -0.20468531582641
H            2.28345493702537        4.04150296474909        0.51458010129143
H            2.45292123500530        5.25697977810784       -0.76474067832319
N            1.70504225332866       -2.52634700458268       -1.44671036184831
N            1.80877546869027        3.36660442917278       -1.42425831151583
O            1.36292719153040       -5.88411382677989       -2.72949728528824
H            1.44584443819831       -6.76591760862380       -3.09373769293965
H            0.56673682068766       -5.92346528599525       -2.15715738203514
O           -2.41161929349968       -4.24631037920587        3.79983256423592
H           -1.52404294793626       -4.18982356942776        3.37317276127719
H           -2.98114750297420       -4.62157309143048        3.12486083981742
O            0.83512104962743       -6.43223662451832        1.06802537080634
H            0.56029477959579       -7.30547628762188        1.35038789388875
H            0.28388490226417       -6.23166482524669        0.27291766369764
O           -0.21222327746377       -4.18920201277651        2.28661906046189
H           -0.74274225997281       -4.03249685523584        1.47994043320236
H            0.26837698634886       -5.01151808212235        2.08693995531896
O           -3.29984441314199       -1.72308573521946        4.33967160689745
H           -3.38591608769054       -1.71011750021130        5.29357025365407
H           -2.96696678325909       -2.62110827683283        4.12598565585410
O            2.93288084903432        0.37570402810533       -3.09141784977899
H            3.46073119298057        0.38725262038548       -3.88972734196713
H            1.74784830174667        0.77070024559715       -3.51713445882284
O           -1.21833450420988        5.43823250065814       -0.49454329905055
H           -1.76417202242858        4.64518274847104       -0.43628835646155
H           -1.78386073758980        6.18691404771297       -0.29575719025227
O            0.71989272552347        1.16552891527489       -3.80397388871131
H            0.55624280806889        0.80325147275013       -4.67314144870605
H           -3.25613793259898       -4.35005851297601       -1.52648245346086
C           -1.58133809043579       -5.02807889623675       -0.90430049368058
O           -2.66112564291253       -5.07762704129971       -1.75026646206846
O           -1.53662005998329       -4.08474088360336       -0.10460949779577
O           -0.74196240590574       -5.92893418096599       -1.04407325449546
