101
 energy: -141.111873864105 gnorm: 0.000166723446 xtb: 6.5.0 (unknown)
C           -3.54852724876631       -4.60060886896106        2.04727941309547
C           -4.42281491506951       -3.48650900538627        1.48483961957361
H           -4.04622428797640       -5.56232756399881        1.94647061096787
H           -2.59947468458168       -4.64534971726468        1.51740623584366
H           -3.34345754801323       -4.42934039673349        3.10187627369676
C           -3.76592041353442       -2.10479946803181        1.63336430662852
H           -4.62415607216820       -3.68197934896641        0.43008456606384
H           -5.38041904146574       -3.48155424671623        2.01031376116386
C           -4.72829303350843       -1.00899015901206        1.14806212838070
H           -3.57374735779412       -1.93678512117506        2.69932782247939
H           -4.88247096074535       -1.10738801028844        0.07334310954523
H           -5.69477916075676       -1.17266189766035        1.63224774900559
C           -4.27003267264372        0.41883817022678        1.48070489677303
C           -5.41196302856217        1.41631411602179        1.22406403002685
H           -4.02961112514202        0.46146788015340        2.54864176666321
H           -5.71723573963432        1.36108633982183        0.17676879503970
H           -6.27002772456159        1.12837731019021        1.83561372239497
C           -5.00886467931395        2.84651098297712        1.56454201505542
H           -5.87360287543646        3.50467738383685        1.52268095506511
H           -4.58180131485585        2.89508619573442        2.56321262388298
H           -4.26616036661537        3.21422449803760        0.86011961054645
C           -3.04186972541508        0.83057230113326        0.71355765735045
C           -1.92210434295521        1.29266960704473        1.39256478854821
C           -2.98881744210943        0.76946586178092       -0.67368095702861
C           -0.78121106678629        1.66643868836358        0.70508152719285
H           -1.94298329394165        1.36119116492871        2.47005876409829
C           -1.84065932784477        1.11256823158913       -1.36175400662187
H           -3.84425955346712        0.42012717677822       -1.23171574443504
C           -0.72171885535775        1.58085039549692       -0.68172682931703
H            0.08646818053107        2.00143232421628        1.25392678623562
H           -1.79942228830402        0.96401672032895       -2.42892178272020
C           -2.44665941890054       -2.06893749995552        0.90595254674010
C           -1.26274728019290       -1.87866891247916        1.60632142269559
C           -2.37376343549934       -2.21174701547567       -0.47446233726244
C           -0.05065387834163       -1.80637151435576        0.94700835508505
H           -1.29053249864252       -1.76499854443292        2.68037925944154
C           -1.16819621128698       -2.11505345362436       -1.14362954098571
H           -3.27424072031167       -2.36918562595624       -1.04850346004804
C            0.01273761538546       -1.91289266845331       -0.43755789846009
H            0.85189898738612       -1.63039519769412        1.51541309049918
H           -1.15493024554511       -2.14296167039805       -2.22309309246258
C            1.32400226390433       -1.72947124748928       -1.14834355028535
H            1.14853611411021       -1.18009811310372       -2.07380447885078
H            1.99806060911801       -1.14179226407970       -0.52123710546373
C            0.56609109491076        1.89009368707438       -1.38084235848653
H            1.36588060044851        1.93003965846250       -0.64383533587053
H            0.77893844446547        1.10002220253065       -2.12231925662853
C            3.44334459627353       -2.68183519256451       -1.81288970457583
H            3.98349929397704       -3.59351614797678       -2.05811870923095
H            3.47235728789200       -2.00735827885329       -2.68559754386097
H            3.91348154079493       -2.19814277177822       -0.96127199636383
C            1.44082968148131       -3.54597460068384       -2.75482093922027
H            0.37352984888242       -3.70104785924142       -2.62799161031408
H            1.61261177370132       -2.81687856640390       -3.56068833424888
H            1.92381690878377       -4.48650031846061       -3.01193062916911
C            1.95466133138267       -3.97141936666086       -0.43226324255344
H            2.38308064578399       -3.54679123137284        0.47415915514496
H            0.91594959512450       -4.23567613575487       -0.24013384648810
H            2.50893807161267       -4.87021125646123       -0.69883080054745
C            2.02926221759359        3.42178553241923       -2.48146802932650
H            2.11520607791902        4.26737760948560       -3.15940331339199
H            2.58159864337030        3.63106163223683       -1.56811605987642
H            2.46246001998109        2.51839970543365       -2.94922768271314
C           -0.12518401538014        3.00543438696773       -3.42303429823557
H            0.22479566725662        2.08163108138168       -3.90454406300209
H           -1.19104368171755        2.92848818050158       -3.22575323847243
H            0.05688680410381        3.85685484689451       -4.07544334843906
C            0.06863847392898        4.28316953803925       -1.38287847555649
H           -0.98710477829936        4.11516438631667       -1.17754017989144
H            0.60126801668248        4.37233105914661       -0.43747914193703
H            0.17682120971625        5.21145879978708       -1.94146151108865
N            2.03282113466243       -2.99514334556729       -1.52510653154067
N            0.61465518112989        3.16488056105421       -2.16180454892657
O           -2.56523141688976        3.50325024590218        4.07023491239536
H           -2.12299596867867        3.94241117045692        3.32262377905902
H           -2.85514023953567        4.20566636643638        4.65360555335039
O            5.45287072537377       -0.28131066511704       -2.89579293519165
H            5.68636661051164       -0.78658379911562       -3.67465507609599
H            4.57413093636924        0.13138243574939       -3.13557381047240
O            1.50097038435715        4.13263549397841        1.58549937443219
H            2.21947446862017        3.62108215090508        1.15902772221223
H            1.90583547927021        4.57766625222343        2.33129697962657
O            3.54387939326219        2.85639011924273        0.34068973257760
H            3.55651748302146        1.94030941846376       -0.06731543666556
H            4.45873635560653        3.06371303312931        0.53232147053291
O           -1.31706394215566        4.52367175513989        1.78572930119107
H           -1.64195715335778        3.74157604480651        1.32763222534808
H           -0.35214988139030        4.43660696952513        1.79386363240061
O            3.63245173302541        0.49285079593059       -0.76367763497627
H            3.30418811248231        0.63317903459071       -1.72187352682936
H            4.55412949538457        0.26776821621430       -0.93039127962408
O           -0.65177845432191       -1.69775630333110       -4.25926890568971
H           -0.01899779890077       -0.93549414892861       -4.08131915436212
H           -0.46702544905617       -1.93724718417348       -5.16780965135615
O            7.20833872466738        5.94539901633892        8.99459464469615
H            8.12778864820013        6.20723465103461        9.07293249234814
H            6.83145166641794        5.96647565408632        9.87641411061986
C            2.22589591913751       -0.05947650734632       -3.74361708121626
O            2.61399819660064       -1.18485504954808       -4.12717207496005
O            0.98385685512926        0.26826048078527       -3.74965626399307
O            3.06108938866237        0.79200024712906       -3.22667132534775
