101
 energy: -141.083999171466 gnorm: 0.000178905012 xtb: 6.5.0 (unknown)
C           -3.07968558024534       -4.47562673371777        1.00512575619673
C           -3.73531360815081       -3.29650012956758        0.29635530385397
H           -3.55710831202305       -5.40638664066376        0.70694588623997
H           -2.02465527272430       -4.53577007274300        0.74887191744173
H           -3.17135595544275       -4.37658130985223        2.08455295062958
C           -3.20116627478166       -1.93598045035910        0.77839634389454
H           -3.56480943585182       -3.38659049682554       -0.77813047356998
H           -4.81367465157836       -3.32368193334481        0.46631450021036
C           -3.91887639007443       -0.81728675982836        0.00995622722918
H           -3.44884893154377       -1.83349504640636        1.84150112320604
H           -3.68286476140260       -0.89451567169441       -1.05153604690395
H           -4.99353917683564       -0.97390976287960        0.12227833659843
C           -3.60436110470033        0.60695177873675        0.49437260522798
C           -4.63400090645370        1.57539997054337       -0.11004456602197
H           -3.72060898985693        0.62990523519778        1.58422495980390
H           -4.60751191986253        1.50107346775046       -1.19841005969237
H           -5.62608226616557        1.26329051114933        0.21975286471755
C           -4.39239717282878        3.02414298750348        0.29580571314847
H           -5.21246419080248        3.65382327957076       -0.04190202526017
H           -4.31674413835309        3.11188461726310        1.37815813619826
H           -3.47345845989374        3.39336257381868       -0.15393339287483
C           -2.19361449483363        1.01920849581606        0.16229787436574
C           -1.28330149826088        1.28546530945487        1.17724634376443
C           -1.75123629436569        1.12117081666332       -1.15328552407462
C            0.03167055148559        1.61267677592097        0.89029534151227
H           -1.59879475014189        1.21120719250942        2.20906621176278
C           -0.43751076025020        1.43172849971353       -1.44509901889592
H           -2.43579175870758        0.92414899206397       -1.96452622437188
C            0.47414760631304        1.68599964210132       -0.42438298174556
H            0.72226729705558        1.78762934146395        1.70345797574767
H           -0.09692896559480        1.43524307380152       -2.46873921688619
C           -1.70289702134403       -1.88936395329298        0.63546057077931
C           -0.88556442886448       -1.90299566847583        1.75848606839418
C           -1.09454967536692       -1.84247712899019       -0.61350868633233
C            0.49460921903935       -1.88492547783411        1.63942779266613
H           -1.33803137589405       -1.90614185170987        2.74241607784256
C            0.27717507301878       -1.77127855116029       -0.73677210312251
H           -1.70037756668865       -1.82721756611500       -1.50605939970260
C            1.09618583417087       -1.81890339751590        0.38823656306213
H            1.10820654830781       -1.89378485016232        2.53058149700137
H            0.72553921705684       -1.62147880490550       -1.70503240047367
C            2.57889936530332       -1.69160023635591        0.24188761296038
H            2.77618166402572       -0.96006916140289       -0.59185433644270
H            3.02545891970708       -1.36612659163486        1.18238997811595
C            1.92214527462488        1.91484111255005       -0.73709393529217
H            2.52401113146211        1.66358650780737        0.13983666311984
H            2.20400403346443        1.20650376415437       -1.54715577870933
C            4.73341148235880       -2.62468370771801       -0.19973430718735
H            5.29556158594607       -3.50280658154642       -0.50836818269274
H            4.92793134659969       -1.78799183515396       -0.93078819544490
H            5.05968693141229       -2.32562647439405        0.79368848961429
C            2.89933524359256       -3.27587716814332       -1.56725363105192
H            1.88268657977389       -3.66047977264647       -1.57972213822543
H            2.95742410023785       -2.35680567723415       -2.16901427315457
H            3.57687694686281       -4.02529773621351       -1.96852738398996
C            2.99966362248416       -4.04324367491831        0.71291859866233
H            3.28448682457084       -3.79136173962175        1.73260055258955
H            1.93445826369747       -4.26397803434605        0.68900536485079
H            3.54755261982628       -4.93185357774322        0.40580504374287
C            3.71504544462729        3.30016949892235       -1.52052147871142
H            4.01332160441388        4.28054291923180       -1.88207504363614
H            4.33992871605775        3.02982655486795       -0.67250688904075
H            3.89152493081055        2.55442268128214       -2.31653936093361
C            1.48819196611804        3.76796518172158       -2.27042142337237
H            1.58533534839121        3.06120304219395       -3.10500965079164
H            0.44508753634656        3.84804453273096       -1.97281031465103
H            1.84270271922784        4.74588394268381       -2.58981529395647
C            2.09658926950563        4.22187777707002       -0.00233189418359
H            1.04107519293023        4.27721588133547        0.26035818201323
H            2.66730298801312        3.88248877773278        0.86023056026703
H            2.44072611371915        5.21791062522186       -0.27654880799609
N            3.29350484879580       -2.92731591841510       -0.19359918367520
N            2.29432351026422        3.30317636778513       -1.13348711543710
O            2.75618923519133       -6.96405474643705        1.92057282164796
H            2.85124562809261       -7.78161269352040        2.41143794384203
H            2.77910597683241       -6.23669897313291        2.57921078545824
O           -0.09104735672405       -4.80304702738229        3.03819869003166
H           -0.38420981010223       -3.92894486876765        2.76166129517453
H           -0.03252984138010       -5.33097006781095        2.21720068405520
O            2.47580639461983       -4.97869468627905        3.75070063750520
H            2.51984686688512       -5.18092147807912        4.68631268946100
H            1.51865062062076       -4.85043958437995        3.54423479735627
O            0.43742274387572       -6.17094314979471        0.75463949438954
H           -0.06132598941576       -6.91267858324106        0.40982904497243
H            1.29958178236680       -6.52434817231285        1.06042122749606
O            6.55530019126734        1.96576844946657       -2.75080139393551
H            5.68317603893942        1.66571769611304       -3.10366626525408
H            6.86648381761123        1.16228074002807       -2.32413132488328
O           -1.06434665818254        4.52074848178309        0.50346234001524
H           -1.81570529548316        5.07136709000413        0.73166010288321
H           -1.30853027394556        3.60778007439041        0.69597643311681
O           -7.36384111142732       -0.70182602008913       -0.00579818992134
H           -8.21397365245707       -0.92773808122708        0.37684824221900
H           -7.49030509706414       -0.62286879950858       -0.95383701766084
O            1.82314695349119        1.67362635079736       -4.32591030081196
H            2.69095305663421        1.33198599078871       -3.89984626712522
H            1.99946713997377        1.61172746696417       -5.26412938272036
C            4.04071742663128        0.01998467406344       -2.52897398224255
O            5.07664315409804       -0.52140468009931       -2.07316855394213
O            2.86790600572835       -0.38785419572984       -2.18080050795421
O            4.09921253857878        1.04215746728825       -3.31367975478464
