101
 energy: -141.135881820514 gnorm: 0.000422186390 xtb: 6.5.0 (unknown)
C           -3.72275616858981       -4.18997363617956        1.97583321143716
C           -4.42379132415886       -3.31775965181016        0.94140770646632
H           -4.15636392140224       -5.18739677160140        1.99022773039129
H           -2.66274989549612       -4.27678633325947        1.74776148288211
H           -3.82291190000217       -3.75795080390366        2.96909058427386
C           -3.86103692642429       -1.88752614509422        0.91275470155331
H           -4.32016377603409       -3.77008957548695       -0.04645657744981
H           -5.49003378677671       -3.27305543666670        1.17512158640589
C           -4.63935382814690       -1.02847027344523       -0.09766296005833
H           -3.99963470193398       -1.45507126805092        1.91014111515326
H           -4.30919501220588       -1.25746073530072       -1.11019307060254
H           -5.69939234445215       -1.28638828677680       -0.02538577289977
C           -4.50521327214646        0.48224150875090        0.14796215142715
C           -5.39305222866080        1.25355098346946       -0.83938161138124
H           -4.86116105366252        0.69704812558912        1.16258045724536
H           -5.05430814336349        1.05255464329460       -1.85639234987378
H           -6.41968820432636        0.89004260488817       -0.75048735315823
C           -5.36691534314293        2.75460111839978       -0.57920391878891
H           -6.01166152605775        3.27596853248666       -1.28325084003032
H           -5.71243134749784        2.97387544905635        0.42884994982567
H           -4.35565255289599        3.14100568137192       -0.68440067167066
C           -3.07183205637219        0.93176129089677        0.04654820810041
C           -2.42253669468586        1.47417551038285        1.14674008620381
C           -2.35486162987245        0.78892909672524       -1.13543986816497
C           -1.08430116854799        1.82029524083152        1.09703997075000
H           -2.96032052968483        1.60117936428554        2.07531209922728
C           -1.02715388499209        1.16290253023236       -1.19998286439421
H           -2.82907964954874        0.36159601899508       -2.00496913723126
C           -0.36818001982296        1.67219692704768       -0.08509699235684
H           -0.60376208877170        2.17072032282884        1.99689522284095
H           -0.48279891268328        1.02589951447717       -2.12410366231484
C           -2.38503587232390       -1.90990445606636        0.60872072366689
C           -1.46362771754707       -1.41349677439544        1.52164290737458
C           -1.90690192124744       -2.42688367682942       -0.58944584838565
C           -0.11178881039874       -1.39391669668215        1.23574555831544
H           -1.80875307108794       -1.01082769168784        2.46202179166591
C           -0.55333670951440       -2.43904832108555       -0.86504486563499
H           -2.59695053376222       -2.81336365194870       -1.32414460543057
C            0.36502785826708       -1.91881025305977        0.04026082525091
H            0.57407861707243       -0.94974621770301        1.94027633717160
H           -0.20518282563390       -2.83563472202753       -1.80866454143687
C            1.82511883949168       -1.87897793539431       -0.30040626768066
H            1.95616618599484       -1.92691784827361       -1.38256589473435
H            2.28410003918324       -0.94973162667998        0.05717000352864
C            1.10207323377286        1.96527617837588       -0.16749095790586
H            1.62103885782457        1.56825532059871        0.70948068008659
H            1.51653103694025        1.48326073421224       -1.05545543040767
C            4.04114434836963       -2.74862693495602       -0.10670208047969
H            4.69447215646058       -3.47567790144068        0.36631206956461
H            4.12838809507564       -2.79478230241352       -1.18972757441897
H            4.32418241815524       -1.74136012690359        0.22931136173721
C            2.18771932044306       -4.27761194555604       -0.22387228996166
H            1.14326948615740       -4.43794766819990        0.04120337280018
H            2.28639674936641       -4.29546875862934       -1.30823816209310
H            2.79268318501450       -5.07643863301527        0.20207196860839
C            2.55628644654697       -2.96376807264832        1.75670468830636
H            2.84119297288342       -1.96940645111386        2.12978602959167
H            1.54667971427797       -3.20633778559978        2.07940699293087
H            3.26085801500000       -3.67750443754976        2.17675169741979
C            2.91461023342643        3.48027205274009       -0.54045066228351
H            3.26020816690100        4.50881613723509       -0.47810019757798
H            3.44008434807680        2.87716460359344        0.20821688439123
H            3.10970466806496        3.06639521245678       -1.52663168047063
C            0.70827004577122        4.10076057359518       -1.27056231350908
H            0.88358516058538        3.62828989222619       -2.23586324758217
H           -0.35559412629679        4.05138793846929       -1.04244645868918
H            1.01962412285746        5.14280786621481       -1.32012184982176
C            1.25895560150960        4.06068247575986        1.06938504130026
H            0.20146373160861        4.09228943814877        1.31320708590170
H            1.78400727489059        3.49104525387053        1.83348092169273
H            1.66752797045478        5.06883818743372        1.04764126686595
N            2.64255518002125       -2.98118851510707        0.28988556470879
N            1.47686247225251        3.41017738328904       -0.23107580662529
O            2.59111186176510        2.08027404521724        4.27181608874908
H            2.69604150474800        1.20946119305383        4.66099793313087
H            2.91255717113990        1.92787702592871        3.32119746195824
O           -4.19256280263333       -1.05613062531767       -3.55982798711748
H           -5.12637983143024       -1.16676941929434       -3.75156270664962
H           -3.71269006308883       -1.20701130386949       -4.37685278232616
O            4.50665278413520        4.00606718496612        2.67253791299791
H            4.23472533752928        3.13971846703841        2.28704011630716
H            4.13240523634554        3.97844669818805        3.55719118673698
O            3.80520568627559        0.83011369540647       -1.90029318046202
H            4.73336081902740        0.97221290479220       -2.09186295329821
H            3.81020596110945        0.60332664099972       -0.89676926137688
O            5.40214294110100       -2.25141529626559        2.75455871088932
H            6.16076042435256       -1.88290298579800        3.20760440051516
H            4.75709614785337       -1.49952780581124        2.70494281424275
O            3.66649778907972        6.04172374024932        1.11490190399810
H            3.97364687478142        5.28881562008697        1.67411048080132
H            4.27491250407550        6.75636141151565        1.30383362621714
O            0.10779334566309        2.97768972146218        3.87547624396200
H           -0.08068185545138        3.46174313328875        4.67952606317762
H            1.01545571788880        2.60933075186727        4.00649247203228
O            3.24780306435048       -1.53417800648412       -3.05959275457997
H            3.50059843222841       -1.39582743796674       -3.97278410564133
H            3.42875368398969       -0.67595997181652       -2.60120533540616
C            3.65135305197279        0.52310586567195        1.68619817179771
O            3.36414670161442        1.77257565648962        1.83662754625941
O            3.90351839825581        0.08877958280685        0.51007652397958
O            3.60994234950288       -0.26511727020905        2.66555309680049
