101
 energy: -141.137126978971 gnorm: 0.000376282095 xtb: 6.5.0 (unknown)
C           -3.65513521120083       -2.04636905407545        2.84721607781021
C           -4.17692575978038       -1.88975138299813        1.42494303282109
H           -4.00316564778915       -2.98340661643903        3.27495346560024
H           -2.56956862227260       -2.04296663854102        2.86325546924429
H           -4.00704202289836       -1.23080867508183        3.47619939155869
C           -3.67829640653833       -0.58854042571573        0.77230685172539
H           -3.86180886581668       -2.74659950065227        0.82955173071568
H           -5.26865602743104       -1.87865811552695        1.43864617931636
C           -4.54650446325787       -0.25320946974601       -0.45779742429524
H           -3.81244867245612        0.22223841365565        1.49624924247489
H           -4.35970943323056       -0.96989438735674       -1.25806272535404
H           -5.58773865025903       -0.36936974379242       -0.15012383539887
C           -4.38516243889806        1.17946293170790       -0.99949294082628
C           -5.53886330035353        1.50767879323359       -1.95995151114610
H           -4.44114858625841        1.86650483398474       -0.14775750590407
H           -5.50530584082878        0.83020399189456       -2.81438389121883
H           -6.48850879860026        1.33186711523697       -1.44869159264245
C           -5.46900789308609        2.94526693357170       -2.46474109043727
H           -6.33140013618487        3.17684147863433       -3.08612782093046
H           -5.43813754611264        3.65373461325437       -1.63790331664225
H           -4.56901464698313        3.09202559816276       -3.05734216072643
C           -3.04568262235738        1.36493435197957       -1.66134236713500
C           -2.12074039117894        2.26619497413564       -1.15004696698979
C           -2.66917504056749        0.59938194445300       -2.75711073444704
C           -0.80993068101723        2.25859883032018       -1.58344138688907
H           -2.41450009240674        2.93583905756709       -0.35450659033673
C           -1.35933864779218        0.59761218687240       -3.19899550672972
H           -3.38944978552110       -0.04332706876560       -3.24257369771169
C           -0.39034434434893        1.35255063886383       -2.55015652251590
H           -0.08675968522114        2.91328652376644       -1.12197705578023
H           -1.07550034601137       -0.03775067990286       -4.02744295240571
C           -2.21078101497506       -0.65630794791711        0.45038831248875
C           -1.30632106222933        0.18528525251458        0.96811824670071
C           -1.71541712907598       -1.75781754053798       -0.44581899655552
C            0.02157877681713        0.33501214352586        0.42371627575213
H           -1.60823223840343        0.91027478141458        1.70878528723296
C           -0.37219580627211       -1.50072695164469       -1.17501882837236
H           -2.49145170801475       -2.06893646311031       -1.15587015116800
C            0.41643352259555       -0.32154530389630       -0.67402942896047
H            0.64492439084138        1.11902827716004        0.83150793075734
H           -0.49350208442773       -1.45416054267001       -2.26051955242178
C            1.56028726981741        0.14148603858979       -1.52103010694218
H            2.10546134209353       -0.70818468212719       -1.92881793456826
H            2.23021596356079        0.72217780596196       -0.89005834081917
C            1.06529073182941        1.03565070875828       -2.71470698426195
H            1.65867793346025        1.94969326996475       -2.73540264309420
H            1.22634953453470        0.50201168472611       -3.65130385155880
C            5.14152348213154       -1.58987978096949       -0.00710693611130
H            6.15347571430587       -1.94829885336315       -0.24605448924141
H            4.70683637452395       -1.15128659779382       -0.90420673632915
H            5.21707225879881       -0.82082365908444        0.76055219239703
C            4.07608547849994       -3.67589962125078       -0.53480249193148
H            3.30832692619343       -4.36673693797925       -0.18791240233261
H            3.74033931855080       -3.20799696366336       -1.45792783949667
H            4.99567153550845       -4.24212385891926       -0.74316618386839
C            4.77378633024618       -3.21800307087542        1.71149225090299
H            4.85234019017301       -2.42985077495461        2.45852287903656
H            4.07265670992171       -3.97206318018731        2.06537861634241
H            5.76049852192316       -3.68733763278491        1.58841085793280
C            3.41570171198172        1.88650744415630        1.88074291032282
H            4.13092433683953        2.56453444677682        2.37169899240702
H            3.30043367661198        1.00003849314017        2.49942126633062
H            3.82669933515721        1.59228269895930        0.91506198837533
C            2.22762501398882        3.68113896308489        0.84455931358186
H            2.65040493684726        3.40254699868596       -0.12079387033374
H            1.23494988634482        4.10121930340751        0.68410136021382
H            2.86558736331200        4.46113191046585        1.29054460033398
C            1.48320684086883        2.81284931923495        2.94473916903137
H            0.49273032014992        3.22480895867789        2.75378494706996
H            1.37643662569900        1.90123739265602        3.52882524023499
H            2.05689815984786        3.54351200689258        3.53497932450986
N            4.27470911801617       -2.64939628432984        0.47128327499032
N            2.11901096421931        2.50220548480246        1.67826289347881
O           -0.33995237748189       -1.63248782293857        3.40606222919460
H            0.12487982579784       -2.48491059070720        3.53104037869037
H           -0.04134885812071       -1.32044361847243        2.54354637846564
O            2.12926655003904       -2.90992088047722       -3.22117435671171
H            1.60901459710389       -2.95185645588465       -2.40955496850706
H            2.16705740606497       -3.80291115706205       -3.56826564299929
O            0.87827338167846        0.09153582466525        5.02158742049532
H            0.32261123857594       -0.49049860776655        4.44683010625289
H            0.59561520489981       -0.07253169321675        5.92188558766339
O           -7.23866158141364        0.17066551985064        1.44834765766629
H           -7.04546891109144        1.12109303419441        1.43423523546776
H           -6.92864248933172       -0.15126632941295        2.29636541140262
O            1.33858187440194       -3.77458468576228        3.17171865423069
H            1.65150415875376       -3.11991996202102        2.50763115340652
H            0.89942698354958       -4.44996527597123        2.64624744452658
O           -6.84128388418108        2.94066117577579        1.09978647936518
H           -7.70769138661817        3.35186920506461        1.13006402284740
H           -6.55925720165166        2.93579443287248        0.18036865348055
O            1.91821995089458       -1.69736286648425        1.55338857814988
H            2.64291994271894       -1.98122209073008        0.96358583867182
H            2.36754946009130       -1.23817934501142        2.28944494751285
O            3.09599694959633       -1.01537842955275        3.92181668784260
H            2.98208849926999       -1.92254668969305        4.21971883467045
H            2.39902922756120       -0.50079758874274        4.37773591569836
C           -0.22526578076342       -3.40523593157112        0.06454373088544
O            0.25053867016252       -4.37984156834663        0.56307711171358
O           -1.41452807819888       -2.90815759536499        0.36700229311899
O            0.37102092600803       -2.70357649804441       -0.90362226787828
