101
 energy: -141.092995106257 gnorm: 0.000373704833 xtb: 6.5.0 (unknown)
C           -4.47505562106267       -3.43359264508444       -0.65193097137848
C           -4.54541786306493       -2.08139575194437       -1.35480168464398
H           -5.02955970004199       -4.18996514292905       -1.20582441252987
H           -3.44411284419638       -3.76205994616949       -0.52997373284711
H           -4.91841118081209       -3.36189459225100        0.33835912933218
C           -3.85754012425243       -0.97949072273377       -0.53606420238582
H           -4.08295148752720       -2.14040490572048       -2.34307415662968
H           -5.59036405006902       -1.80044896672075       -1.49342782913590
C           -4.07809652741949        0.38559482087461       -1.20686995478018
H           -4.34236008499441       -0.95493449556189        0.44582795428728
H           -3.51343306880506        0.43201093939942       -2.13844821615996
H           -5.13808226936613        0.45923337297496       -1.45671730167231
C           -3.69709167529421        1.57670051341018       -0.31208730533007
C           -4.37897244130634        2.86133154829628       -0.80930764344906
H           -4.06086597492412        1.36924236849222        0.70103400597247
H           -3.99973946252256        3.11265106405724       -1.80100460924742
H           -5.45280509002846        2.68308976006990       -0.90975355987819
C           -4.14147279075441        4.03663795315295        0.13216000860203
H           -4.64826187521922        4.92689532099001       -0.23308019991531
H           -4.51260002537159        3.81837676829953        1.13185369491438
H           -3.07828170610538        4.25135196225766        0.21029132621955
C           -2.20369709704322        1.76465437369789       -0.22035903577196
C           -1.55322849353176        1.63416142096899        1.00010559689723
C           -1.43886282549603        2.05694255587465       -1.34278050804355
C           -0.17982807657813        1.73264516810842        1.09233541086783
H           -2.11378930026629        1.41507965187956        1.89535273320380
C           -0.06541047337745        2.18574470370480       -1.25068326954899
H           -1.91284408428634        2.17275440468657       -2.30694242957541
C            0.58578857123350        2.01043979944418       -0.03490173994217
H            0.29106966277825        1.55962581516269        2.04561381421286
H            0.50814812889349        2.39489093927330       -2.14444734735022
C           -2.39435731195105       -1.26669814786101       -0.32458652619865
C           -1.87242821674797       -1.35490362014884        0.95910858100838
C           -1.51671565870859       -1.40460638172689       -1.39327618825858
C           -0.51885266469745       -1.52052207081768        1.18067704884932
H           -2.52091761973195       -1.24496048206418        1.81465312320548
C           -0.16450153696594       -1.61346055493314       -1.17864991769657
H           -1.88113173452242       -1.33235301694849       -2.40812270552050
C            0.35826579997976       -1.66762745362160        0.11193463870608
H           -0.15804602147076       -1.46402252157616        2.19330701677859
H            0.50064259359623       -1.70115215336607       -2.02641386143738
C            1.84329101044532       -1.72290337402277        0.29359233291552
H            2.32082999330674       -1.61160677592357       -0.68244144937971
H            2.17606037662827       -0.88628509521859        0.94399394961657
C            2.08259212050463        2.00617847102491        0.04623633408639
H            2.40929300939445        1.20666385704307        0.74179981845948
H            2.50920451963132        1.80456092989214       -0.93934651784185
C            3.87399727110184       -2.65039523373996        1.07602756174778
H            4.36248496457694       -3.44217400592597        1.63873824832470
H            4.34275114959276       -2.55947411417215        0.09812958494269
H            3.97376899415399       -1.69365486906035        1.60854827379430
C            2.24006439655203       -4.11863905474291        0.07049902108124
H            1.17893486098030       -4.34636218860728       -0.01044128969414
H            2.62494364550856       -3.93507453406477       -0.93175772221682
H            2.75289395735472       -4.97691255812293        0.50134519342053
C            1.87580152039541       -3.18726655593390        2.25829931008071
H            1.95215644639492       -2.25059177935979        2.85991249919471
H            0.83431000974271       -3.48450511571083        2.17771862821683
H            2.43441736452099       -3.98074174998238        2.74991910588698
C            4.14009623477235        2.92011854152937        0.81925680351071
H            4.62666343614950        3.71611188480058        1.37573768761516
H            4.17307890970267        2.00974443738492        1.43094435166298
H            4.66199853653482        2.73873529635849       -0.11812190807003
C            2.61590321805745        4.33102532384595       -0.42580804285724
H            3.10197107414676        4.04436096358795       -1.35791754636485
H            1.56427854058464        4.53603471889890       -0.62372599903205
H            3.09059990084536        5.23365732957703       -0.04422076661936
C            2.11447409203580        3.68360242886423        1.82639639480564
H            1.06548275510232        3.92625059760306        1.68232178646616
H            2.21298120232830        2.87043049846203        2.56555232162567
H            2.64476634471773        4.54907159894176        2.21495022777528
N            2.43778430151567       -2.93941999433645        0.92272706698994
N            2.72766385603038        3.25162550913109        0.56212378142320
O           -6.87046314438292        0.99295824707837        1.32765370412648
H           -6.46191226326353        0.50182090737813        2.04396334523046
H           -6.27810378696208        1.71622461918045        1.10397823775740
O            4.64680383125974        3.19920313658869        3.78763468814199
H            4.94446377920596        3.13579490445817        4.69515679935699
H            3.94089239210898        2.50318934904112        3.71478704333492
O           -7.43726060259906       -0.31019703690085       -1.10586191018053
H           -8.38485662983604       -0.28067140370570       -1.24466157636943
H           -7.28076539336983        0.09536356063664       -0.23821551697529
O            1.82950501169364       -3.86415228912258       -3.01966224478931
H            1.87080524346486       -4.26589670330583       -3.88803770149460
H            1.00213929315691       -4.18352565941238       -2.61128341086719
O           -2.81135079480748       -4.75044619809415       -3.38809791997131
H           -3.46406091826628       -4.23078773871368       -2.90878070071990
H           -3.22018693994170       -5.58926576960786       -3.60921117509653
O            0.51755588669484        2.37047669309782        4.83524383978756
H            1.32972563716524        1.97662131914957        4.39717321669489
H            0.69162087453759        2.27626404103996        5.77222817986865
O           -0.55105127011328       -4.56493098805164       -1.78486671487013
H           -1.25669622478186       -4.73313414133459       -2.43092844889280
H           -0.73438435313099       -3.68560218232816       -1.42845908481602
O           -0.58696447438598       -0.11532483179794        4.12240966379511
H           -0.49736587125514        0.80933067082768        4.39888292261626
H            0.35116254744953       -0.38727402104374        4.00682020741431
C            2.63803595880990        0.31260116157909        3.06454840702231
O            2.64530090539842        1.46706255820224        3.62840294331334
O            2.00379315289225       -0.65312421810724        3.56624500718004
O            3.25147434341854        0.17652650011690        1.93974048823860
