101
 energy: -141.126658520640 gnorm: 0.000277380193 xtb: 6.5.0 (unknown)
C           -3.43169112240173       -4.90872545787036        0.10501340753709
C           -3.92414372961031       -3.72701872641675       -0.72166899861556
H           -3.67973662679724       -5.84587542729905       -0.38707527807270
H           -2.35316347735010       -4.86792174463649        0.23738818031819
H           -3.89548912993441       -4.90457666029245        1.08892589111414
C           -3.58130748023155       -2.38049728456418       -0.06438744798614
H           -3.48341623510173       -3.77047958405324       -1.71923915771787
H           -5.00805378819642       -3.79940468327731       -0.83613055155933
C           -4.26206206492457       -1.22829317650322       -0.82165624542018
H           -3.98257194796233       -2.39581380626181        0.95529744290001
H           -3.84104299272405       -1.14670324185979       -1.82444327237752
H           -5.32062305467391       -1.47909858758023       -0.92841189222519
C           -4.16139556363479        0.13109836242328       -0.10743223589153
C           -5.23849125613082        1.09221145595298       -0.63429431713224
H           -4.35490259888865       -0.03094760470684        0.95883059373651
H           -5.09623239194040        1.25451301596323       -1.70422292663965
H           -6.21936454383138        0.63105235774797       -0.49833035389913
C           -5.21162603253854        2.43190360339184        0.09129838594088
H           -5.99848986768982        3.08300081862952       -0.28237939973810
H           -5.36193189988236        2.28950105288926        1.15911358607483
H           -4.25415739654203        2.92707292648295       -0.05465210069037
C           -2.78705005517312        0.73462911042898       -0.24742796272817
C           -1.97435251701359        0.90177861622229        0.86648529134656
C           -2.28719560419056        1.11974499380272       -1.48579781028899
C           -0.68333258218174        1.37706077142111        0.74725315176414
H           -2.34093526461817        0.62063419405369        1.84195954968719
C           -1.00834735226805        1.63037184595937       -1.60715413076431
H           -2.89326168772389        1.00874353065949       -2.37297989321011
C           -0.18283479880097        1.75033965355876       -0.49496460250745
H           -0.04303420298723        1.40882719249670        1.61348245526697
H           -0.63930850395203        1.90663355577874       -2.58606867988396
C           -2.08902655005597       -2.19249409096714        0.01851756997061
C           -1.45234225418936       -2.07314584439030        1.24733051135511
C           -1.31150932080059       -2.10653605911675       -1.13043615598904
C           -0.09781200842194       -1.80666077420772        1.33727653512353
H           -2.03325757988968       -2.14510302750220        2.15506999840802
C            0.04881028028628       -1.87198780058171       -1.04674123679630
H           -1.76699559250439       -2.19588373742968       -2.10549672971181
C            0.67209655631596       -1.69939873313415        0.18493946345103
H            0.33793683588814       -1.60652549911884        2.30443582245947
H            0.62512697194859       -1.79164328284222       -1.95702621493234
C            2.11077333551637       -1.26883148098764        0.21805223008859
H            2.38360534906650       -0.94257711527416       -0.78799556461732
H            2.19901313467841       -0.41304446450112        0.90770265730282
C            1.25559810788345        2.15690417534787       -0.63606254132465
H            1.84176107423690        1.57599738435984        0.09538886009515
H            1.59956660660285        1.96024378162865       -1.65329345514345
C            4.43919963816242       -1.82956523258053        0.15547645391312
H            5.20986861386081       -2.50979546152597        0.51199679377629
H            4.45588871513888       -1.79488454107780       -0.93185456169931
H            4.65373119858516       -0.83844680557559        0.54973799165787
C            2.82204768325026       -3.59223204644370        0.04470409755289
H            1.88579507765931       -3.97294960801698        0.44965394261936
H            2.73670685843539       -3.50275129859791       -1.03761499147981
H            3.62341860829019       -4.28735465329814        0.28791236441064
C            3.18890352899277       -2.40331624755533        2.10155121759000
H            3.45109002095465       -1.42418548314795        2.53065592027564
H            2.23337551335631       -2.73191769604286        2.49811558022799
H            3.97333394756028       -3.10843283857544        2.36898280968240
C            3.01382574637836        3.76736072480374       -0.56431812428249
H            3.31368558093990        4.77572694715955       -0.29123501282390
H            3.58476763809197        3.06723768856080        0.07283286475682
H            3.24576555963207        3.58447720668366       -1.61133806402713
C            0.79066043796086        4.49727792064422       -1.14796863493633
H            1.02958873261023        4.34580120125561       -2.20001882361295
H           -0.27282520110610        4.31430428677686       -0.99812557704139
H            1.01966021603147        5.52671210953987       -0.87755060633023
C            1.31374692665954        3.83741919232159        1.11146057606728
H            0.24395235942063        3.87917006031265        1.29818838898940
H            1.75360311660135        3.01009097084618        1.68586952054518
H            1.79220155472131        4.76350476272952        1.41865543424513
N            3.12279192308113       -2.28282009744540        0.63585161319956
N            1.57530780026627        3.57941682805692       -0.31471400673780
O            1.28010024991116       -0.29387830237372        3.71699726540386
H            1.68739438734064        0.29325606256601        3.02429996947169
H            1.96054835814006       -0.34373843309273        4.39079261120745
O            4.17413769303854        4.61319577819473        2.18484056362949
H            4.67587781995751        4.70123295520820        2.99561935622887
H            4.26885282164964        3.66055843956008        1.93833158649436
O           -0.36652697188294       -4.01078528440464       -4.32563065098990
H           -0.62043521758473       -4.63085188983374       -5.01039864863274
H           -0.52527032786028       -4.45894187193884       -3.47086518985433
O            6.59706392014110       -0.72913342206508        2.54412501223673
H            6.81419721844427       -0.26539951071618        1.71766743655903
H            5.71811964418257       -0.33118768876068        2.77899019086680
O            6.22611609229345       -3.31960740290293        2.16624063591234
H            6.93294016480801       -3.75314490286281        2.64417470551052
H            6.36120656207463       -2.34678135244532        2.34346709989577
O            6.53300209122122        1.00458182608831        0.37069452267435
H            7.21167100273420        1.66584939230703        0.50903673175006
H            5.71505817677838        1.40127262227723        0.80166494133934
O           -0.08016478504031       -4.97910156761220       -1.79067860594807
H           -0.47278044967186       -4.29015042677751       -1.24361651406395
H            0.82996086880939       -4.69816810307968       -1.96677581898105
O            2.11898314141679       -3.73700076599467       -3.14119843454592
H            1.32588056505575       -3.62889529135284       -3.69836605075018
H            2.77229521484799       -4.17757074692665       -3.68711753824500
C            3.67908484748968        1.18672637021749        2.03365619209514
O            2.40256152108519        1.20730772393405        1.83923432322421
O            4.18032954023134        0.29517000676528        2.76081839146823
O            4.39590842307628        2.05365426555900        1.41369072060475
