101
 energy: -141.094762690097 gnorm: 0.000362083610 xtb: 6.5.0 (unknown)
C           -3.24690243553447       -3.73039467114945        2.12340231370974
C           -3.89238281250701       -2.74886917769587        1.15231806227839
H           -3.65352580993128       -4.72943129912891        1.98312601001758
H           -2.17127458589121       -3.76894871564674        1.96665813540164
H           -3.43130756127133       -3.42622298229851        3.15106954321645
C           -3.34066718892730       -1.32376707150944        1.32565916657930
H           -3.71008181213640       -3.09190389359212        0.13110359537120
H           -4.97210359845722       -2.73798383904593        1.32069079009876
C           -4.13661026795703       -0.32221240931028        0.47132759531259
H           -3.47143913534193       -1.04802171457464        2.37786075806623
H           -3.83423154564658       -0.40114421869299       -0.57203858265934
H           -5.19745328669913       -0.57602894492071        0.53781937460877
C           -3.97751449245801        1.13913048762534        0.92326439772986
C           -5.01081716924746        2.02658013920766        0.21517239549490
H           -4.17231282149547        1.18871514461790        2.00073557505273
H           -4.84234162157414        1.98646524558933       -0.86135012587734
H           -6.00895675252506        1.63182553839964        0.41569309811603
C           -4.93662395565986        3.47287592398092        0.68881166760361
H           -5.68521191488043        4.07947593863937        0.18394064362109
H           -5.11234322457686        3.53394943018411        1.76075802974234
H           -3.95470429697754        3.89215757145704        0.48082987157800
C           -2.57520762199282        1.62535613286438        0.67138397098726
C           -1.72772577928502        1.92231364347433        1.72937059465542
C           -2.07681938434041        1.73946371960969       -0.62056627553963
C           -0.39886834207150        2.24278271721618        1.52295166584475
H           -2.09614432577231        1.86035935523508        2.74268373302706
C           -0.76404726472828        2.11017222749956       -0.83529962249468
H           -2.71073100550796        1.52156597822680       -1.46670283415299
C            0.10229698745015        2.34223245197187        0.22925628875721
H            0.24338122069519        2.36113415181703        2.38206051772941
H           -0.39543922731087        2.18142698555596       -1.85038440674035
C           -1.86528245835680       -1.29968889077904        1.01247587430554
C           -0.93987665368942       -0.94165246853649        1.98493170395380
C           -1.38807109594936       -1.63905699763835       -0.24739085181464
C            0.41075907864332       -0.87829152408233        1.70331602833742
H           -1.28195204417233       -0.67755335540430        2.97407394153696
C           -0.03334335266172       -1.62099332878584       -0.52129055854865
H           -2.07539551156772       -1.91645767239925       -1.03330025075158
C            0.88774398481479       -1.23414602351673        0.44588864118049
H            1.09414885034173       -0.52119578996398        2.45704616601353
H            0.30905238658430       -1.88885395154842       -1.51221737438634
C            2.34341672632854       -1.11601748467842        0.11039958881340
H            2.46680557225411       -1.06831232551945       -0.97450641111998
H            2.76951036111963       -0.18585309440547        0.55273640766813
C            1.56056836047507        2.55334105316810       -0.04607003085389
H            2.17505651895947        1.88948162528109        0.58863928552622
H            1.76669032943940        2.29376493676096       -1.08793871251153
C            4.61455914441701       -1.80316697875943        0.33673360284589
H            5.30192378059213       -2.52542613399810        0.77064626240813
H            4.78163871802204       -1.72326138074071       -0.73562688771003
H            4.78132168930592       -0.82491283241160        0.79524221566259
C            2.92633182763395       -3.47343192388358       -0.08148487273378
H            1.88884167085924       -3.75228709153779        0.09919527958405
H            3.08230644897687       -3.36653504473129       -1.15441196805552
H            3.58169947519121       -4.25646648973019        0.29640914828205
C            3.07734889007905       -2.40451279698778        2.05693731643837
H            3.29850252465334       -1.44535481416729        2.56410015996421
H            2.06892981287112       -2.73351231119839        2.29254571668634
H            3.79619821597316       -3.14686679112294        2.39453364073251
C            3.55800253581530        3.83893262570221       -0.11332130164080
H            4.07463083740209        4.71764349148975        0.26164757283606
H            3.95884039700196        2.95621267418856        0.40648861263797
H            3.72573920414176        3.72774892880865       -1.18251859147812
C            1.45818095460497        4.88603444884501       -0.71665599380520
H            1.60046311427626        4.59838424148382       -1.75778457742237
H            0.39003749526472        4.91245897379428       -0.50306616100877
H            1.88039981386048        5.87777111702012       -0.56281718448830
C            1.94286801361028        4.34574611526935        1.56997281704339
H            0.88948906785675        4.43136992585049        1.81822394302081
H            2.42858906014638        3.60404686343507        2.22328080564759
H            2.43841432101566        5.30050796640106        1.72747512936659
N            3.22573512441403       -2.21227790418202        0.60644058163569
N            2.11411088129531        3.92137745047261        0.17351789865025
O            4.96512644503126        4.53930184363812        2.49964303741656
H            5.60047818210165        4.59091996931841        3.21353377559131
H            4.47816465361648        3.69219085883024        2.67036254590819
O           -0.17440255542938        7.66619736835097      -10.25069238113305
H           -0.79259871872979        8.35046967631297      -10.51484531032596
H            0.57161580738264        7.71152054975727      -10.85202363679274
O            5.95697913843683       -3.61147316068099        2.53267863301178
H            6.75799366077834       -4.02746011990458        2.85177051136892
H            5.99494762941474       -2.67906870260587        2.87001004019473
O           -7.14448796238313       -0.06278305162882       -1.56926532406423
H           -6.35583712402657        0.40947794515284       -1.88465773397224
H           -7.90464532581388        0.38030137503325       -1.94829254801395
O            6.08423159058544       -1.10334850746939        3.41142842108941
H            6.25440571738503       -0.98482975891339        4.34639288618698
H            5.23264624706495       -0.57754352843577        3.25588595952838
O           -5.45117741496751       -2.13035847771413       -2.27359150898292
H           -5.09251036232106       -2.49887848440020       -1.46334790123330
H           -6.25836837888258       -1.65728737832470       -2.00919156383852
O            1.28026010097755        2.22207107562019        4.33296970221179
H            1.41905706290552        1.62542204568187        5.06920491484605
H            2.17217582068289        2.26860165189658        3.89708432094817
O           -4.72369529957388        0.43390135687737       -2.95340913815373
H           -4.77230479924302       -0.53251532521478       -2.81910993148183
H           -4.70871392311402        0.57175479114123       -3.90165908746060
C            3.74481928045105        1.20262867465258        2.45737172468579
O            3.86933127112967        0.15382836461905        3.16436922513599
O            3.55379345384141        2.34003417161061        3.00883680662713
O            3.75451792775190        1.12127480825448        1.17733208220601
