101
 energy: -141.091766652854 gnorm: 0.000175721746 xtb: 6.5.0 (unknown)
C           -3.00850254176405       -4.05413644842919        1.75198203068012
C           -3.40829390832481       -3.24209090983407        0.52527501995105
H           -3.54084908012892       -5.00304261573775        1.75093602824378
H           -1.94360400941045       -4.26797421234943        1.73891026926964
H           -3.24651263636101       -3.53279227948070        2.68149999410397
C           -2.86230778645714       -1.79707099148483        0.52244988749014
H           -3.03689131164671       -3.75709309124889       -0.36050215643962
H           -4.50097970178512       -3.20804515357080        0.46114467120760
C           -3.65596677805273       -0.95662984216380       -0.49233321727590
H           -3.01944848320101       -1.36336562123807        1.51757496645376
H           -3.33726426001409       -1.19454853635845       -1.50555010131215
H           -4.70934368815726       -1.24664043552908       -0.42257361282619
C           -3.58961994155885        0.56563671024298       -0.26072795693927
C           -4.54731447739958        1.29147699377471       -1.21383247862981
H           -3.91623778147607        0.77264795380623        0.76612866202554
H           -4.27162893794272        1.07780890333532       -2.24693672376917
H           -5.55884052637993        0.90644273976394       -1.06190177309470
C           -4.54322330587736        2.79806496582615       -0.98383921863367
H           -5.24240894220479        3.28956232298714       -1.65647381053325
H           -4.83117578676729        3.02967584500001        0.03977154579235
H           -3.55014229660574        3.20625161651321       -1.15812723606970
C           -2.16970588417132        1.04100991544842       -0.38883006857668
C           -1.44963513012383        1.35607464361906        0.75546245632821
C           -1.51272415096785        1.06907560615893       -1.61365111540396
C           -0.08779302263788        1.57132954497170        0.69443648571777
H           -1.94588766996951        1.37557643530157        1.71360466980787
C           -0.14635010398911        1.26237438429160       -1.67571244661235
H           -2.05524821997902        0.86387969626183       -2.52342550401923
C            0.58965991501255        1.46389886133196       -0.51369554475873
H            0.46084740191320        1.75405107079537        1.60464089865875
H            0.36241535314172        1.17281210739961       -2.62335746679215
C           -1.36770884488937       -1.84519872052603        0.30741413380330
C           -0.54318326167085       -2.07823239564705        1.40306795649807
C           -0.76351480662154       -1.72210451118600       -0.93487094121094
C            0.82455041196448       -2.20701729392407        1.26025347101270
H           -0.97937343932360       -2.18323860274161        2.38444148768217
C            0.61240699668101       -1.75233112122774       -1.06793978080546
H           -1.35858071718695       -1.58914707951497       -1.82171929556146
C            1.42902942539768       -2.02023612531710        0.02197094643812
H            1.42267249461241       -2.46951632870743        2.12261102827051
H            1.04438157820669       -1.56798198310131       -2.03788911231883
C            2.92960438971826       -2.01292298735238       -0.09105917196542
H            3.26112831611960       -1.15760585251770       -0.68244020224071
H            3.36433587944245       -1.92584052828017        0.90798790967463
C            2.08756437550931        1.35768292888011       -0.51837328028658
H            2.40914358658496        1.01961611555596        0.46746130106975
H            2.37034821187558        0.62875363256329       -1.27800922236669
C            5.01494304056280       -2.96013856556817       -0.70628159464350
H            5.53638643325695       -3.73218120191646       -1.26704330298314
H            5.20916277344011       -1.96546939338488       -1.15485088100047
H            5.37877785150624       -2.95998424850682        0.31929092158790
C            3.12698137220648       -3.33786975549881       -2.12765478346851
H            2.07969006303309       -3.63695609242232       -2.16876052390909
H            3.26406559738376       -2.38792701112216       -2.64034009818899
H            3.71941796175814       -4.10459852085758       -2.62271370589796
C            3.22279506525630       -4.43129557395631        0.00146610943478
H            3.43069471302079       -4.31150751281093        1.06220733472711
H            2.16299311361633       -4.65349510784575       -0.13944754615088
H            3.80642447594111       -5.26342769429877       -0.38711535448605
C            4.27987870218830        2.30270238789265       -0.54423151328094
H            4.90536678588419        3.12727934606815       -0.87883940137586
H            4.41580209688498        2.16197845273011        0.52579606146474
H            4.59513066352230        1.36045941196983       -1.05487448857822
C            2.70425514971734        2.92317159553650       -2.25166371275278
H            2.93991895795447        2.02425844833152       -2.84159473678406
H            1.67480342903099        3.21359935344569       -2.44839078829638
H            3.36877790548584        3.73864170019732       -2.52900943876645
C            2.40458871379298        3.70495671577844        0.01277188315435
H            1.35524565507075        3.91370601722808       -0.19054792038864
H            2.50817889148051        3.43485086340968        1.06238499958851
H            2.99630182566329        4.59670003119001       -0.18903160564070
N            3.56295278254518       -3.20388770752320       -0.72980408602656
N            2.86405698306356        2.59325581797974       -0.82848632223258
O            0.06491573560648       -5.37199523166929        1.51222346025970
H           -0.34841351664513       -6.23676524418094        1.52912371606291
H            0.12911097591441       -5.15447129408351        0.55476055394644
O           -2.84274312487718       -2.85853046366809       -3.36720620631576
H           -2.45144487405050       -3.51249077429920       -2.73042131596586
H           -3.59504157856115       -3.31033650115628       -3.75090153541728
O           -2.88263373506504        0.53044401828459        3.78772087563564
H           -3.18761723554411        1.00031867966288        4.56566540759906
H           -3.60420382289439       -0.07388332057370        3.53824384978977
O           -0.12050906884693        0.12400341554607        4.17634572941267
H           -0.11635592943345       -0.82277191821033        4.33169322217407
H           -1.03096490941713        0.34456976786653        3.92196601063780
O            2.17705459578672        0.40848292714762        2.61352321391090
H            1.50094205401588        0.52405803251415        3.30091482752617
H            1.90023986567875       -0.38920667796344        2.15099661559656
O            3.07736920195040        0.13689309541335       -3.20818005126898
H            3.29574996865035       -0.20283413024520       -4.07453900307497
H           -0.65042544607301       -3.62959733036310       -3.59175122640058
O            5.02747963506583       -0.22057562031126       -1.76377691073750
H            5.78399575525025       -0.06144441804686       -2.32766281456688
H            3.99800015946094       -0.05336594224883       -2.57255015726371
O           -5.01887108601922       -1.08669058752548        3.00529263724804
H           -4.80853095533559       -2.01149079022262        2.84111826297347
H           -5.38928936462993       -0.74479287687927        2.18737646342257
C           -0.40832251331008       -4.54912436424853       -1.90481112232564
O            0.08966403323541       -3.97218892379628       -3.07077723110099
O            0.46192896134981       -4.92244783381081       -1.11407919594171
O           -1.63351238086327       -4.61437792746476       -1.79160429198074
