101
 energy: -141.144673109438 gnorm: 0.000634805685 xtb: 6.5.0 (unknown)
C           -4.62317117432288       -4.12688146249559       -3.27853520171968
C           -4.61459737202595       -2.65100781572348       -3.65786061896695
H           -4.85393335095777       -4.74290580159443       -4.14472962627161
H           -3.65289376849750       -4.42618156857081       -2.88838304058631
H           -5.37061917986739       -4.31813272113455       -2.51205519326808
C           -4.30712980015625       -1.75393486262229       -2.45109049087840
H           -3.87805692300349       -2.48090846752877       -4.44530932043390
H           -5.59263737770998       -2.37687465470898       -4.05998297859748
C           -4.36602150309123       -0.26997483193097       -2.85152511390373
H           -5.08277243245410       -1.93102664680493       -1.69789062779391
H           -3.54309702018505       -0.04468749371403       -3.53104896407104
H           -5.29677300279004       -0.10582833271851       -3.40136550322628
C           -4.34621051603915        0.69730324163668       -1.65787852498095
C           -4.69212970944285        2.12234258291815       -2.12648711690752
H           -5.12454947383437        0.37973361216586       -0.95545056743984
H           -3.88551490660441        2.49615559781558       -2.76108236378139
H           -5.60220553306936        2.08828156167426       -2.73104739320880
C           -4.90348417947593        3.07528323371310       -0.95631652868526
H           -5.12504744827699        4.07635405670196       -1.31998672828069
H           -5.73832532136679        2.74166391466428       -0.34396668969254
H           -4.01747115975447        3.12072135909449       -0.32801519442590
C           -3.03326440810996        0.73546136381910       -0.91696016094593
C           -3.00292699800366        0.63383446347711        0.46768621515443
C           -1.82931508770653        0.92826164457931       -1.58345679523429
C           -1.81615772470046        0.74124135950930        1.16625908284232
H           -3.91583913048749        0.47262565428137        1.01883441066301
C           -0.63729589591223        1.00925720681438       -0.89098786601666
H           -1.81154399563030        1.00838564699929       -2.66058027426229
C           -0.61779629906055        0.94784654359661        0.49857811490220
H           -1.82505171526412        0.64819820764577        2.23842063084658
H            0.28576392914566        1.10856419762805       -1.44524050036737
C           -2.97280215927029       -2.07433848047101       -1.83220277589197
C           -2.87875741724600       -2.30663984517506       -0.46707085857737
C           -1.80150661070375       -2.06990233821231       -2.58063238693964
C           -1.65346633271157       -2.46781761051566        0.14814593921360
H           -3.77305370928185       -2.32514444812707        0.13609166380180
C           -0.57322137698257       -2.25008280466313       -1.97395260111690
H           -1.83961569496697       -1.89829912647687       -3.64639640549841
C           -0.48240211529380       -2.43385183116288       -0.59842158377921
H           -1.61405247102477       -2.58102803221585        1.21953522923692
H            0.32537923823804       -2.20700339665858       -2.57517538131443
C            0.84928541639731       -2.52188225995368        0.08977209283214
H            1.59779085528038       -1.93762032916524       -0.44905682856928
H            0.75621024483516       -2.12806848377064        1.10646774472157
C            0.66578801125765        1.06425091285891        1.27204037730421
H            0.53168869896562        0.62890952873416        2.26308829593358
H            1.46571422484057        0.53191824391368        0.75292674392504
C            1.50720819716166       -4.57220323575530       -1.05281446704254
H            1.89188035336289       -5.58271242124055       -0.92353154989164
H            0.53200625524866       -4.62283487245428       -1.53403564740048
H            2.18977564586211       -4.01068063430672       -1.68932233805169
C            0.48805986411715       -4.68745024768142        1.12751678796925
H            0.40076405100426       -4.15872731067544        2.08113144669111
H           -0.50621512592263       -4.77863246932898        0.70017540020734
H            0.89775435906700       -5.67895411985707        1.30145953725870
C            2.69593002530211       -3.81959582113453        0.89977993376377
H            3.35455217637841       -3.16901360685800        0.32802591298170
H            2.56595716340349       -3.39616750795269        1.89405285578830
H            3.14266006934672       -4.80812402846332        0.98608417181929
C            2.41088503221406        2.40832638529077        2.22212452072817
H            2.76060321422713        3.41313244781260        2.44733495292980
H            2.26765276332822        1.85712126851129        3.16223002146706
H            3.15723874282647        1.88624192467948        1.62729051085661
C            1.36061611950980        3.14038113957829        0.19808229217302
H            2.05072084873200        2.55710939068382       -0.40965191257623
H            0.41449002627339        3.24787234743159       -0.32861126277627
H            1.78578679545106        4.12875599747011        0.36693341364419
C            0.15871196277168        3.23810519488815        2.26301591637323
H           -0.81552010966206        3.22687525858757        1.77736655403253
H            0.05715230283876        2.81838324595302        3.26127625960243
H            0.49458687804887        4.26841993413055        2.35989478799368
N            1.37973882923063       -3.91261311126515        0.25077757568666
N            1.13981168554872        2.46910459044840        1.48417188715921
O            0.01077050734056        2.22451666555315        5.19768299916322
H           -0.20605558832942        1.97556222496592        6.09596544448757
H            0.74550781941770        1.57585983719330        4.91416355440986
O            1.84606602330371        0.59808369740892        4.46963235425100
H            0.70781537617925       -0.29114656688103        4.28971187786773
H            2.23857401457993        0.35713265063443        5.30708955489986
O           -3.28600635208705       -0.66467208816026        4.04623934307657
H           -3.45738060397299       -0.90062455906597        4.95901604766909
H           -2.55708224395125       -1.27543053156683        3.76453086416040
O           -2.10872200220959       -4.90105767820883        2.54604869573642
H           -1.80409636050602       -4.02447084579599        2.87469813957828
H           -2.92872184476109       -5.05911539156080        3.01504482785914
O           -2.60839807406372        2.00188259311973        4.20110387131506
H           -2.84980486946124        1.05669041479286        4.12542678187733
H           -1.69369303025864        2.02462699772144        4.53329637278724
O            3.38345337322634       -0.45371932373011        0.39300037498452
H            4.33417877330886       -0.36960180714460        0.31286168334626
H            3.23429395143727       -0.68663295080766        1.36364250255743
O           -2.90382808107538        3.48242149632650        1.97220814235754
H           -3.68432003678074        4.01268418301126        2.13302242034432
H           -2.81787745062466        2.91277567390096        2.77340698723605
O            3.04544642156347       -1.04997758396941        2.89171397971938
H            2.72827032645171       -0.30971853915821        3.48899933196596
H            2.26810764086986       -1.65143139853850        2.97065549381245
C           -0.26216725849072       -1.92369192352995        3.53647300821589
O           -1.39374768091376       -2.43526543853894        3.38007468636909
O           -0.23786056136314       -0.76603628310434        4.17821251681945
O            0.79202755425916       -2.42737947059638        3.08160671452096
