101
 energy: -141.117985084489 gnorm: 0.000766308389 xtb: 6.5.0 (unknown)
C           -3.21867533508890       -4.49818144631503       -2.85947720455129
C           -3.46526172909054       -3.08945980838790       -3.39042296368765
H           -3.27448995782628       -5.23024064787879       -3.66353137264509
H           -2.24663211276399       -4.56897423664264       -2.37599200029885
H           -3.97339028709581       -4.75466727894395       -2.12007712967070
C           -3.34134969308227       -2.03468908009735       -2.27802807139593
H           -2.76342465742924       -2.85617042881819       -4.19523694349202
H           -4.47051644552140       -3.04268595241359       -3.81491696131277
C           -3.79712615265106       -0.65739837408866       -2.78671061015841
H           -4.01766212079274       -2.33207719091002       -1.46968191211591
H           -3.04475000094945       -0.23697892219738       -3.45560180980663
H           -4.71272781637569       -0.79686773762861       -3.36768361333840
C           -4.09997980160018        0.34235370335194       -1.65806364374871
C           -4.86402713845125        1.55621015685348       -2.20708228270712
H           -4.74959118284015       -0.15680974087426       -0.93066493112583
H           -4.25575972337556        2.07059632216987       -2.95343372219246
H           -5.77082926522855        1.20628860640570       -2.70606713028946
C           -5.24517006797187        2.53267973969815       -1.10122671497447
H           -5.80241459963486        3.37265820461269       -1.50953149883463
H           -5.86401941239931        2.03964473611712       -0.35505954699480
H           -4.35522242402519        2.91483074394845       -0.60624627205599
C           -2.83817848737124        0.76017900204392       -0.94870354030507
C           -2.61412714367565        0.38400981643928        0.36907990154784
C           -1.85324397888905        1.49286008516626       -1.59996715452558
C           -1.42034617349186        0.67040794497082        1.00191945133960
H           -3.36317168906796       -0.17893623594650        0.90418370839581
C           -0.66983368430029        1.80997202457893       -0.96166361449838
H           -1.99819291166205        1.80874264777158       -2.62297464575084
C           -0.42885239829436        1.38482300604175        0.34018871244844
H           -1.24304869418618        0.28724306684335        1.99518535577041
H            0.08850930219813        2.36693973966184       -1.49694158754688
C           -1.93798649622438       -2.01824375084034       -1.72382008689897
C           -1.69851123323607       -2.39361199334587       -0.40806528405923
C           -0.84831266339614       -1.63647749289312       -2.49944042964956
C           -0.43058754735354       -2.33482106456101        0.13420400733914
H           -2.51679455176705       -2.69233382692525        0.22824462428162
C            0.43161718276376       -1.60997756083924       -1.96838920561326
H           -0.99884803999028       -1.30856145365629       -3.52023091444999
C            0.65739698983517       -1.94534736192554       -0.63920029335781
H           -0.30983173100318       -2.54979350728752        1.18294506756266
H            1.25594278835073       -1.29130056073267       -2.59260970579451
C            2.00560424077761       -1.73258376007983       -0.01171079597660
H            2.60658140796955       -1.07877197320049       -0.64898388394960
H            1.86111675253734       -1.22998530270944        0.95562777580258
C            0.91664005216011        1.59867943110191        0.96763858428164
H            1.22553438533690        0.69217554609380        1.51639226011363
H            1.65150173367845        1.80719951864333        0.18558532611651
C            3.38889585281460       -3.51085531517687       -0.93953654983050
H            4.06885591393513       -4.32260771514949       -0.68739340781010
H            2.57955123896722       -3.91277941276412       -1.54747468535354
H            3.93463117107211       -2.75542611355123       -1.50282279287010
C            2.04536523671189       -3.96704740899246        0.98395892591449
H            1.57910837189966       -3.52008886105101        1.87203929440837
H            1.29169866851985       -4.36776302489176        0.31143017437050
H            2.70337072095831       -4.76630440039040        1.31439210802346
C            3.91862101130777       -2.48529317442202        1.18253132097296
H            4.59872087188212       -1.82824399278977        0.64354413293738
H            3.48514779810275       -1.93606691188044        2.02557195187494
H            4.46149197129373       -3.33704014006183        1.58219940332730
C            2.41474037541768        2.72085580339149        2.43060055693462
H            2.52331936833242        3.40525967032657        3.27205900612122
H            2.69048808992299        1.71961927196208        2.76147253045399
H            3.07229881975600        3.02247820510263        1.61776034327338
C            0.66111019274803        3.99000378774313        1.38228277146431
H            1.33873948464760        4.22992781685379        0.56359889642849
H           -0.35695587030495        3.95290555554073        0.99670323304829
H            0.73156593612099        4.76694375688419        2.14157859604995
C            0.13314058701413        2.42380661728864        3.12252571220036
H           -0.90248768947829        2.60557283220227        2.84681636461313
H            0.22161577457456        1.36807192782008        3.42352081514878
H            0.40757068111069        3.06138807320417        3.95849703633933
N            2.83438683718933       -2.93641816387397        0.29221683364884
N            1.01540296209676        2.69492037764871        1.97350181524020
O            2.57716188033650        0.75499526425699        5.08991980057626
H            1.80951481654692        0.47409546224898        5.62738285807705
H            2.46260797774682        0.27414323860437        4.23857578582784
O            3.32389147318578       -3.67315246825441        3.93963351973891
H            3.35394405774468       -3.67246546384627        4.89684496584443
H            2.49047646927474       -3.18244049949216        3.71651890800671
O            2.27294919801388        3.52783148435739        5.32394473038280
H            2.20960114861725        2.55383246307093        5.32196878339190
H            3.14175706863471        3.69303323598394        5.70201272246939
O           -0.07786734839556       -4.20945502203970       -4.12528156265504
H           -0.25321105292258       -3.35934257478960       -3.69921232893536
H           -0.92659743158169       -4.56083385163797       -4.40476650455979
O            0.97113132641467       -5.32294869222232       -1.83639398988210
H            0.66318630974949       -5.01224954669741       -2.70574926510718
H            0.78756773346635       -6.26281000527433       -1.80095201083588
O            4.83822411585803        2.17652780935181        5.76176405431192
H            5.29975844559911        1.68890142427323        6.44474946125522
H            4.10765562476560        1.59747992454580        5.47618773089737
O            0.20060239799023       -0.07831888417124        6.12499524503065
H            0.00139335484386       -0.23848196399056        5.16114789664863
H            0.07378836126298       -0.92991746082236        6.54492519561276
O           -1.96362306061122       -2.32996813251492        3.14205195838837
H           -1.48018499025567       -3.12096726858620        3.39259069102016
H           -1.31357011101783       -1.61150703930844        3.32865228989318
C            1.02912521490856       -1.17255314075344        3.20487536704433
O            1.06253811478903       -2.42942907497738        3.28086224273961
O            2.03469585350963       -0.51100575380730        2.73381473513294
O           -0.01389886299284       -0.51568967094791        3.56287413341353
