101
 energy: -141.003925711747 gnorm: 0.000541839049 xtb: 6.5.0 (unknown)
C           -2.43982033704399       -4.19128480584139        0.88586220433588
C           -3.18026348906322       -3.10937132892193        0.10835938274885
H           -2.85383084931270       -5.17228011345995        0.66308979930767
H           -1.38303529723035       -4.19410070397471        0.62590631840607
H           -2.52668210935858       -4.01790329228468        1.95642642343867
C           -2.64653854417204       -1.70208193634453        0.42368209015668
H           -3.09082811356835       -3.30440577322520       -0.96158330130941
H           -4.24145631251102       -3.14766731785118        0.36293989587687
C           -3.45587629718756       -0.63821681196809       -0.34143420370811
H           -2.78063214121679       -1.52590097485107        1.49736674857346
H           -3.16912056016637       -0.63732528908045       -1.39234639080888
H           -4.51359184478043       -0.91042991956539       -0.29244538776146
C           -3.30839092264514        0.77701543108643        0.23339469012848
C           -4.16282598587660        1.77086187523481       -0.57256747571630
H           -3.68606558753416        0.76051990840691        1.26487672946850
H           -3.72911176469533        1.89787029318928       -1.56631193859275
H           -5.17313048839875        1.36347532752388       -0.67633299790793
C           -4.21426093391141        3.14470429512812        0.08284142975034
H           -4.96559151572484        3.76012524102703       -0.40619584697182
H           -4.45985364260805        3.07384321681851        1.14264936097864
H           -3.25080656045662        3.63879973738320       -0.03335864485363
C           -1.88545393268837        1.26138707205148        0.26128333455436
C           -1.36844081326717        1.83561776576381        1.41437250818378
C           -1.06843050051464        1.19032515635153       -0.85884858399921
C           -0.08658938448664        2.34503332943576        1.43817331131163
H           -1.98589994500000        1.90740368996463        2.29931779558799
C            0.22948440935899        1.66072852490513       -0.82837710845536
H           -1.45122525948462        0.79060482044991       -1.78230142817966
C            0.72677850532908        2.27137398295487        0.31525045172855
H            0.28930616577255        2.80393374766565        2.34334473321506
H            0.83468335054247        1.57079306875678       -1.71701377835192
C           -1.18141791268435       -1.60185060564459        0.10597315695759
C           -0.25062345052520       -1.29308778783276        1.09809838774973
C           -0.71397579941818       -1.79548941402078       -1.19648001258670
C            1.08014556762576       -1.12902609310175        0.80195041082133
H           -0.59035345470516       -1.15687270859357        2.11479307325378
C            0.61018903043473       -1.62515785941163       -1.51043225955134
H           -1.41078502067427       -2.05621767096795       -1.97914955204056
C            1.54977503884813       -1.25791089957384       -0.52257426169422
H            1.77830641785807       -0.86107693949497        1.58245208225048
H            0.94061938904706       -1.72724134008365       -2.53334973710129
C            2.90785978757585       -1.06839476436510       -0.84769122157971
H            3.16241666557535       -0.90130817293159       -1.88089177130440
H            3.54351678265296       -0.58641799956587       -0.12242735461670
C            2.11763626204584        2.84150974660961        0.38063908504726
H            2.37125895438420        3.01376710401049        1.42972913174816
H            2.83430335039248        2.13466393550920       -0.04755878613395
C            5.22420187737773       -2.67196169100969       -1.06521668438387
H            5.76663373050090       -3.62216145500266       -1.07280021541298
H            5.29668376952847       -2.21423198265249       -2.04991438433639
H            5.68551692058168       -2.00767085037025       -0.33723716602657
C            3.16567770521205       -3.74681016999665       -1.68191560821674
H            2.09731749254732       -3.76277618529089       -1.47156058748247
H            3.32165640510508       -3.37154692341660       -2.69105088866152
H            3.56153029978179       -4.76372538806563       -1.61602672440169
C            3.65398267587148       -3.35373305080681        0.62595491590718
H            4.14342285200076       -2.67542621702365        1.32211691141341
H            2.59134206161078       -3.38872275720549        0.86246306774057
H            4.08214380081023       -4.35359373191289        0.75032819640569
C            3.55877862556018        4.74739260758745        0.15176033957820
H            3.71885213009558        5.70006782477571       -0.34926233720470
H            3.50029366786699        4.91555593245027        1.22659680951495
H            4.39877153264624        4.08803592890531       -0.06452029925117
C            2.40087198492205        3.94923240272504       -1.78319683139288
H            3.11881569004452        3.16768750598249       -2.02019580023649
H            1.41453845951196        3.70127685252091       -2.19560237693065
H            2.69847569247821        4.88136059222924       -2.25812394626791
C            1.19651883432774        5.07288586383750       -0.04384776409004
H            0.22408504944006        4.66197206807488       -0.37781444083567
H            1.15829192955794        5.27840051674552        1.02177847278118
H            1.35115559094990        5.99403263312461       -0.60260417734048
N            3.82721580515570       -2.87611831987251       -0.73045665533184
N            2.30466173022443        4.14684010825328       -0.32996191561729
O            0.93549080188134        6.43748684832524       -2.79008611081235
H            0.46492273399005        5.56215366510871       -2.85456499195581
H            0.32935657111086        7.05595635435057       -3.19854833873192
O            6.25434909001748       -6.95187937815733       -5.17174638481990
H            5.50310455202646       -7.43501663049862       -4.80996529600399
H            5.99866604674319       -6.01495492903919       -5.11435046173257
O            0.57111024257365        1.78934681766409       -4.09189945739516
H            0.27971925426060        2.67536665253174       -3.75398342682482
H           -0.25110851124002        1.40604308987253       -4.40278908998227
O            8.05802561661370       -6.88835331171580       -3.16839650933603
H            7.53613526883129       -6.97384283332880       -3.99656680950204
H            8.63629048106488       -7.65044791763917       -3.12666172924168
O            5.41603141422429       -4.45544921096834       -4.24620760383777
H            5.67545156121699       -4.77540867000721       -3.34984707159289
H            6.03845837545145       -3.76813094722479       -4.48582937704373
O            2.34144025723547        4.70081296196495        3.26151043131820
H            2.68215831256459        5.11526012311991        4.05674735935751
H            1.38326879561187        4.69170982286872        3.34189258881753
O            5.94141552906636       -5.74624613531011       -1.94168808203694
H            5.28652549643530       -6.41863557000157       -2.16702141051623
H            6.80373311310871       -6.13210706388761       -2.18963060456147
O            3.80190845388445       -6.76454981266402       -3.61740647815737
H            3.97700742454705       -5.89529636685866       -4.00176963430201
H            2.87622161789184       -6.95795366347037       -3.77152062191248
C           -1.30378126716582        3.81515494220272       -2.27505736794231
O           -2.20232401805003        3.07326973054222       -2.74873337742980
O           -0.24440384738132        4.05914447729050       -2.96586531289618
O           -1.41338696697958        4.29004595899846       -1.10482340474959
