101
 energy: -141.140720891101 gnorm: 0.000168094345 xtb: 6.5.0 (unknown)
C           -4.22813283556407       -3.70034614570422        2.12481400545177
C           -4.68538966956342       -2.61342037589107        1.15836187015892
H           -4.65766103016060       -4.66103038024532        1.84928210607752
H           -3.14412258219288       -3.79074711195569        2.12838262846677
H           -4.54787206282205       -3.46422793673406        3.13734990059237
C           -4.02695401309351       -1.25595605928975        1.46093562057561
H           -4.45167767169153       -2.90636670496380        0.13228636571539
H           -5.76996092287085       -2.50886732749843        1.23113067853704
C           -4.74988251122460       -0.13191682967491        0.70432266815061
H           -4.13695574199654       -1.06229875095152        2.53418526819792
H           -4.67545626564980       -0.29757689283198       -0.37014216350339
H           -5.80971852615186       -0.18279248810891        0.96786262672326
C           -4.23959260938922        1.27551223640820        1.05004139768943
C           -5.24579105653498        2.33371232419488        0.56746214678998
H           -4.17126770166557        1.35187677836825        2.14174648154450
H           -5.32403274198963        2.28876836552542       -0.52014180664271
H           -6.23007350397025        2.10351668816614        0.98209466612453
C           -4.84367235858754        3.74200383161505        0.98768568615483
H           -5.58083597513467        4.46490009030611        0.64623017968502
H           -4.77164498451955        3.81120789674578        2.07109992753956
H           -3.87765090988594        4.00636951389751        0.56364041479840
C           -2.87705752191328        1.56290658830964        0.47143191805609
C           -1.82407879315074        1.93482145436954        1.29580361660218
C           -2.63660994603912        1.49569793677718       -0.89529588337729
C           -0.58306639046552        2.23937759601468        0.77005908047162
H           -1.97712833696340        1.99356873123157        2.36416564596688
C           -1.38610678037399        1.75880708989839       -1.42331684589733
H           -3.43113056694844        1.21962196091389       -1.57227207297201
C           -0.33995540819479        2.15727632886561       -0.59718704760683
H            0.21634090716822        2.53374250087727        1.43499960795747
H           -1.24495208957963        1.63473909707147       -2.48452033539637
C           -2.55632604940444       -1.31581360508617        1.13988751828856
C           -1.60799830628299       -1.32538439131018        2.15390761078129
C           -2.10817381390705       -1.37164087948042       -0.17651485063343
C           -0.25626619560696       -1.37733985300672        1.86412955844917
H           -1.92962457228673       -1.28390871040248        3.18468287268563
C           -0.75874508435036       -1.37197202093500       -0.47067098708754
H           -2.81834274064508       -1.37892473206094       -0.98885552930209
C            0.18863096154975       -1.39109672329423        0.54854818036642
H            0.45887045612462       -1.38055160222809        2.67429465578136
H           -0.44006949943516       -1.33295664931096       -1.49971604004012
C            1.65075712145115       -1.34749435257785        0.22937751592583
H            1.83025103377334       -0.65748964810145       -0.61795457604719
H            2.20792953423564       -0.98329149833374        1.09472131205602
C            1.04409333298546        2.46864609661520       -1.09503365448171
H            1.67375697076655        2.68256799631801       -0.22872321589768
H            1.48350304214764        1.59308214559238       -1.59600700312732
C            3.65202609406499       -2.35815932737522       -0.57904759704597
H            4.10672067839352       -3.23436381035776       -1.03326095224918
H            3.63638165996606       -1.55298204178124       -1.31845975177268
H            4.23396921676090       -2.03489097905627        0.28124630984332
C            1.55965022642308       -3.21614860329837       -1.34257534417087
H            0.56297936625714       -3.53354217501561       -1.05206820076332
H            1.51487895696025       -2.46783525035539       -2.14964264715826
H            2.11596296377077       -4.06985732336486       -1.72199642932645
C            2.22795882617270       -3.61080687544592        0.92128393109388
H            2.72231104931191       -3.19837335074496        1.79945256752865
H            1.19298642434301       -3.84920926038816        1.16477802127129
H            2.73858882967659       -4.52511460857237        0.62419139828629
C            2.56297873880165        4.08587514007585       -2.00545112761398
H            2.69198742424479        4.93215368650122       -2.67632036544742
H            2.86369338144452        4.35599721594862       -0.99565772406827
H            3.20147499349145        3.27949645577340       -2.35413164119998
C            0.82244353164171        3.27821447823017       -3.41034615417678
H            1.38170753068601        2.38451551195108       -3.70764751485974
H           -0.23813025005465        3.07766405705398       -3.52551528372153
H            1.11184832587597        4.08985574383759       -4.07459292743701
C            0.30471247625792        4.73572737299563       -1.56615643201217
H           -0.74070840309844        4.43369633588804       -1.59885178172360
H            0.56371339240081        5.00314973785846       -0.54268443908673
H            0.44665268421996        5.60160182476153       -2.21071423911990
N            2.26321367506999       -2.64552483466300       -0.18439479444194
N            1.16184288301369        3.63547275844008       -2.02309506650408
O            4.43208766765992        2.33897829589792       -3.92121101070885
H            3.62622822505881        1.69742938852048       -3.97373501388827
H            5.07927809188729        1.95902234521546       -4.51555937801553
O            3.61283428844293       -3.26795184237032       -3.67005534727033
H            2.96428887749345       -2.52449694646478       -3.65691067799269
H            3.93998002857652       -3.28518962536951       -4.56973178799191
O            3.63278221406946        3.01685138061964        0.69763513540798
H            4.01882192690554        2.43873543525048       -0.00984563622890
H            4.29596173947962        3.03966430905862        1.38749420831451
O            0.46312644682622        0.12726932488098       -5.71810734881053
H            1.27453079694308        0.45359801699166       -5.24167462834864
H            0.39969774796078       -0.77323607133564       -5.38210759584708
O            3.21120090112369        4.51446630576821       -5.07568511053875
H            3.01386523887740        4.19347763370537       -5.95685831142857
H            3.69228156386029        3.78125152572453       -4.63796050942277
O            4.66523130938365        1.48019329936344       -1.22304722547355
H            4.91682512145443        1.92625538710174       -2.04362725810523
H            3.89035491946882        0.91797300121719       -1.50847558794659
O           -1.51116791585097        1.61659372050634       -4.70223356129053
H           -2.08615108516389        1.72760587057506       -5.45961169274122
H           -0.75853897920136        1.06686103884451       -5.03925386204885
O           -0.96319666571087       -4.42721271335251        0.56939247475844
H           -1.52571798705274       -5.18821418381335        0.41277763347205
H           -1.50511908510584       -3.64136862883712        0.44053389918688
C            2.29867578815458       -0.14879527508707       -3.25590856226841
O            2.62256651083526        0.09870241714341       -2.03830875275614
O            1.81945971573538       -1.26781851756214       -3.57380348896047
O            2.43857104239550        0.78632941599664       -4.12979336409921
