101
 energy: -141.152014196970 gnorm: 0.000423320615 xtb: 6.5.0 (unknown)
C           -3.39081620649467       -4.33786877810144        0.69945896115879
C           -4.08542027368886       -3.10785318895059        0.12821792298381
H           -3.84931264486023       -5.24597584331269        0.31525446579451
H           -2.33722614802002       -4.34174139824417        0.42900763659953
H           -3.46556978106863       -4.34907447588427        1.78471151603025
C           -3.47845962845648       -1.80163929312911        0.66459401883530
H           -4.01239514088154       -3.12338676053531       -0.96065337082835
H           -5.14550989756322       -3.13915421608029        0.39001610726663
C           -4.28192323498458       -0.59546958028369        0.15168035967537
H           -3.55989134284508       -1.82014899454207        1.75764243271313
H           -4.18049721683494       -0.52003801421610       -0.93150573603665
H           -5.33674230635370       -0.78027940421569        0.37146420798817
C           -3.88328681917766        0.74200754296256        0.79913427956358
C           -4.99430357847594        1.78390228580550        0.59600334028599
H           -3.77475423705232        0.57847125512138        1.87747177569014
H           -5.15277465657094        1.94927010789285       -0.47103542258877
H           -5.92575400069713        1.39200089512139        1.01103064376190
C           -4.66452897130387        3.10938754394249        1.27147458975101
H           -5.47561353551129        3.82011167871302        1.13106711082834
H           -4.51466015468006        2.96607466362702        2.33938177926841
H           -3.75499191773513        3.53514072380907        0.85349628182315
C           -2.56634781692381        1.24478430108800        0.26457339872717
C           -1.45697173459377        1.33284368697909        1.09565309688454
C           -2.41604887128768        1.60603957429312       -1.06897221847543
C           -0.22359596283000        1.71320425169032        0.60415580298007
H           -1.55268069246473        1.06706771147889        2.13832337538673
C           -1.19169782121415        2.02046550747215       -1.55899193781380
H           -3.25965148440210        1.55223037738174       -1.74157596136665
C           -0.07535876328693        2.06772649494336       -0.73209439402134
H            0.64511808047967        1.69246028411227        1.24347311708975
H           -1.09472517123899        2.27850239118015       -2.60421818473052
C           -2.01911373781469       -1.70728106537382        0.30269822372667
C           -1.04528288805677       -1.67618605470392        1.29225550670914
C           -1.60651292144341       -1.63377271457134       -1.02173899736132
C            0.29107778238909       -1.51446006148439        0.97766512748980
H           -1.33965355240933       -1.74513230065062        2.32986551958656
C           -0.27015225124661       -1.49662876877100       -1.34062420325534
H           -2.33547995767225       -1.66417137987641       -1.81754455752168
C            0.69907767713757       -1.41828429794593       -0.34686524392059
H            1.01296488575823       -1.41357012335780        1.77338445631252
H            0.02172030964370       -1.41432085903392       -2.37769559591677
C            2.12449257700201       -1.12425165816457       -0.71695547883690
H            2.14845220552465       -0.70835242955175       -1.72694720573071
H            2.50846802100394       -0.36461407534194       -0.02796277994637
C            1.28285695574626        2.38894484486573       -1.27983737380405
H            2.02332088967880        1.78447300444687       -0.73192269817193
H            1.31811633489956        2.17487640451693       -2.34610652602051
C            4.26395200001738       -1.93197881155844       -1.47055853655182
H            4.96499729174886       -2.76087387858101       -1.45462527102855
H            3.98895869272609       -1.70301097832806       -2.49701431383416
H            4.73702228794271       -1.05831314765718       -1.02532806574870
C            2.45279766368927       -3.48151473420511       -1.26497183874797
H            1.57250824672740       -3.76528580127907       -0.69105397647306
H            2.15636816579001       -3.28442491194014       -2.29322665910172
H            3.17805825813179       -4.29506760967312       -1.24254245178643
C            3.50034068325502       -2.56068572384963        0.69430997715255
H            3.99843052583709       -1.66698287424001        1.08949680271902
H            2.64293198812852       -2.81629423942391        1.31041012289081
H            4.19816680701798       -3.39515307710461        0.68736384684260
C            3.06715277650833        3.92531018029466       -1.71281770520115
H            3.47224948859299        4.91791575237700       -1.52995922062794
H            3.74247232163587        3.16255844562701       -1.28999664285115
H            2.98411272929742        3.75441168535475       -2.78425177164346
C            0.80294108924767        4.72663432676586       -1.73533258288914
H            0.75622420238545        4.50195581625288       -2.79996505993488
H           -0.18994507991198        4.61490149807061       -1.30187073440261
H            1.14061722364645        5.75333979920334       -1.60091916990023
C            1.86437213862134        4.08273613665856        0.34547583664183
H            0.88421388415391        4.08748180086314        0.81639433166294
H            2.47587884100937        3.28003919099454        0.78474963975846
H            2.34482285309095        5.04680756406581        0.49800252750214
N            3.06883873266100       -2.28191179255606       -0.68464535228919
N            1.73831297619713        3.79873632611750       -1.09074407311288
O            7.21138167339761       -3.52757493256362       -0.65926197582420
H            7.56911224692482       -3.20648583383992       -1.49199198780828
H            7.11132667667350       -2.71861044654696       -0.11198518380139
O            6.86925804628107        1.83855256217285       -2.10655654667216
H            6.03082286094833        1.67474589255430       -1.55969150718458
H            7.35062098138741        2.51159143263009       -1.62720521758267
O            5.06389413173381       -5.14951518961713       -0.59457978226799
H            5.87717292664281       -4.59836860361443       -0.61462343639597
H            5.36784983767447       -6.04243309906122       -0.43085542903169
O            7.59416752694556       -0.82040920756124       -2.24066026954213
H            7.41338741869702       -0.97743601230539       -1.29606116893446
H            7.56708365335202        0.15035915873213       -2.28891737851602
O            3.49662360667002        0.64835192198925       -3.01299474980276
H            3.88786378033697        1.02423349889561       -2.17665035424706
H            4.28819963390198        0.46972868376925       -3.56091129639889
O            5.88963678925789        0.29887790731992       -4.22194295949309
H            6.21759326451133        1.09092954691768       -3.76946857148446
H            6.37168691517807       -0.41826304720541       -3.78371508687805
O            2.24520260985007        2.53383678587653       -4.39463757432306
H            2.53344762009645        2.44389383394421       -5.30322595131186
H            2.71124733042601        1.80680312707476       -3.90211096612449
O            7.04895901448026       -1.08076436482952        0.42453256222635
H            7.62686387807519       -0.78099705549348        1.12490558916504
H            6.17474019026068       -0.53367812720249        0.54791853589206
C            4.24665271160175        1.06399452689088        0.27720709044784
O            4.89320709881611        0.12282864290055        0.83701866421876
O            4.65920538135750        1.57878761541978       -0.83895823126161
O            3.13722192950504        1.44523863993829        0.74563976898143
