101
 energy: -141.120404909867 gnorm: 0.000569171392 xtb: 6.5.0 (unknown)
C           -3.11147842403838       -4.79164697645864        1.09756961930944
C           -3.66774400222640       -3.77382027116398        0.10953904047725
H           -3.41875602123384       -5.79752489994824        0.82106546936834
H           -2.02444093917376       -4.75376498895855        1.11324104278599
H           -3.47460744135291       -4.58625322440704        2.10214570876194
C           -3.27068043248313       -2.33577553396997        0.47884484413626
H           -3.30473232195829       -4.00601386621773       -0.89339325778782
H           -4.75754727936522       -3.84734564400701        0.09268948603735
C           -3.94075700555209       -1.34000139267796       -0.48043910675386
H           -3.64493387695592       -2.13567751792838        1.48947080002838
H           -3.54126038005006       -1.47274558703347       -1.48647524327367
H           -5.00714362061209       -1.57787281766035       -0.51622036597524
C           -3.79386790340438        0.13342818256378       -0.06167416824595
C           -4.84591943776966        0.98413850106990       -0.79155216355750
H           -3.99667864761655        0.20231559361239        1.01349628096662
H           -4.70634018405302        0.89723482772525       -1.87006077001187
H           -5.83556219850643        0.58734849803053       -0.55325045397518
C           -4.78856100243101        2.45409100607998       -0.39618963831120
H           -5.61597957540025        2.99739810780475       -0.84581606324814
H           -4.85371365272456        2.56270392282455        0.68484712048710
H           -3.86226360346829        2.90305500632485       -0.74180111337769
C           -2.39665202425714        0.64338001801748       -0.30876796014246
C           -1.57921070683554        1.00810995534705        0.75494996626004
C           -1.87213391561364        0.73966983304001       -1.59230874369069
C           -0.26381642186688        1.39934926107325        0.55837248974174
H           -1.95997839435904        0.95089973249200        1.76450934762434
C           -0.56957755639770        1.15288664140289       -1.79884578999089
H           -2.48044444495138        0.47577137373869       -2.44402764980957
C            0.25756500833478        1.47671916102139       -0.72846668832513
H            0.35701611653670        1.60567658042576        1.42068377633912
H           -0.18638634090519        1.20392516975833       -2.80670947903937
C           -1.77196728277978       -2.18558906921267        0.49290587158376
C           -1.10468029981202       -1.86212454056413        1.66773024688630
C           -1.02073680764080       -2.34985450068572       -0.66386944469578
C            0.26140599864263       -1.65713449881316        1.68187672309291
H           -1.66750071895023       -1.73780242748523        2.58158710915163
C            0.34815863354354       -2.16571294060275       -0.65071947595785
H           -1.50727431748657       -2.60791939415680       -1.59287290863996
C            1.00913247582534       -1.80550696664154        0.51851176380362
H            0.74449014324339       -1.33714026054426        2.59133776705083
H            0.90759998407275       -2.27129360770555       -1.56976274333144
C            2.47002514673339       -1.48516580813211        0.49585371602580
H            2.77976431192545       -1.21693750079421       -0.51551705550374
H            2.68906330040407       -0.61900139567606        1.15335600601423
C            1.70234756078172        1.82408301365300       -0.95924724601019
H            2.30341927427049        1.44338752621350       -0.13312241224221
H            2.04734102342767        1.34197170450923       -1.87638718821149
C            4.74174504828036       -2.00275763612484        1.01245246648087
H            5.44348391710245       -2.72668051806643        1.41856161110103
H            5.04840961690505       -1.68986641959707        0.01518889026747
H            4.71374964836794       -1.10696364512392        1.63999367636333
C            3.35728177046018       -3.67682952922554       -0.02205352537313
H            2.34663418128173       -4.07646941090385       -0.09637370513688
H            3.66694994399856       -3.30648209391753       -0.99787137281794
H            4.03551399088597       -4.47082695495070        0.28783133419548
C            3.01160870304949       -3.07603282100439        2.27752751053773
H            3.04898313164056       -2.26072563672405        3.00935003882833
H            2.00707595044391       -3.49295253612412        2.24998370009456
H            3.71094406317142       -3.85107686186572        2.58669013277157
C            3.42135723615797        3.40957831905013       -1.47494036559568
H            3.75057004217149        4.43796489023032       -1.35345552511327
H            4.05056677479118        2.78014467518492       -0.82158823718562
H            3.54728739639178        3.09229542772627       -2.50782649395907
C            1.14905110928226        3.90724735419937       -2.09014594105131
H            1.19932762934016        3.35977938149721       -3.02873214886723
H            0.11915844293884        3.91636957509538       -1.74256925773457
H            1.46770328807583        4.93323033299538       -2.26040978374431
C            1.80255452811085        3.95704440013672        0.20958417341153
H            0.76484959005462        3.86494326907885        0.51563167544394
H            2.46622651161484        3.51948849920517        0.96788613665980
H            2.06652077091712        5.00731578994511        0.11502909809731
N            3.38645522511986       -2.57531510432631        0.94836517786120
N            2.00793526591170        3.27991969086069       -1.07916774113005
O           -0.34267963588543        5.75165984592073       -4.26679688450662
H           -0.31964673209315        6.28411325434058       -5.06278059388669
H           -0.21006484314387        4.82760006768161       -4.53913054868731
O           -0.60139157694172        2.98506005078763       -4.64678027542190
H           -1.27698328045775        3.21889776155534       -3.97303311175275
H           -1.08899503471764        2.66378839921197       -5.40660678600390
O           -2.29945921854735        4.19136854551855       -2.92233800642341
H           -2.15323457626904        4.14256289341707       -1.96669640338398
H           -1.86975468704682        5.00931757575172       -3.21188038716222
O            1.49110465780163        1.73464057269208        3.18025868275586
H            1.84956577011650        2.59480531950029        3.41252289988095
H            2.28282215288013        1.28892941031132        2.76669965620998
O            4.42158836491116       -0.30698213028524       -1.53651731177440
H            4.50009948181477        0.34454624965430       -0.75245452723169
H            5.08262054359333        0.01170688069205       -2.15152077645493
O            4.76067876997869        5.01527433635258        0.74540060084848
H            5.60511153322541        5.21394919825119        1.14955403769959
H            4.49258442111907        4.14816262920943        1.16229057573356
O            3.22855402997319       -0.76512802332035        4.24732161697982
H            3.51377652445537       -0.18507829237533        3.49977748006729
H            2.56059715046149       -0.23857976740710        4.69147656412846
O           -1.68839104253440        4.10293408808421       -0.16487259385921
H           -1.65630642708819        3.22509303730272        0.23962671908640
H           -2.09764419564463        4.69672502426730        0.46764623350565
C            4.09930936548541        1.62575367699666        1.42405790767996
O            3.58984427585757        0.60580871154550        2.04380323177247
O            3.92204449353603        2.78073466696628        1.89789161582150
O            4.67939472296261        1.44425734328931        0.30514368794207
