101
 energy: -141.133667069155 gnorm: 0.000367764237 xtb: 6.5.0 (unknown)
C           -3.14671952220185       -5.26119958070113        4.58370976161713
C           -4.00872713171416       -4.20336277262074        3.90563579325006
H           -3.63951702228770       -6.23028700106584        4.55311292226897
H           -2.18436763042469       -5.34671985270555        4.08379535730010
H           -2.96927495217611       -4.99974390790229        5.62493483560526
C           -3.35362960394404       -2.81286955524184        3.93973363497757
H           -4.18726916452010       -4.49271913611416        2.86860628530833
H           -4.97712188317943       -4.15268196222231        4.40866915269182
C           -4.30983832138280       -1.76618098687446        3.34662359822544
H           -3.16974122314670       -2.55213824915353        4.98876585599481
H           -4.43861490797577       -1.94862719580352        2.28046682130021
H           -5.28690308085273       -1.90053399427507        3.81915731763585
C           -3.87917528246552       -0.30950527682891        3.57320912641048
C           -5.01511354968006        0.63700680081150        3.14584346248416
H           -3.71067261484701       -0.17029911900388        4.64802181845926
H           -5.17321783406885        0.54148911779404        2.07062014374902
H           -5.93693174052667        0.33572294906072        3.65020063201932
C           -4.70954110428401        2.09207823373752        3.47767486274161
H           -5.54439177281240        2.72656456647056        3.18839054717961
H           -4.54040006155694        2.21496543173177        4.54578711677523
H           -3.82068934358029        2.42163741914660        2.94623855214024
C           -2.61703598825868        0.07463134797303        2.84426126175551
C           -1.57925391280490        0.69786686788988        3.52355586911333
C           -2.47241628470116       -0.12691045321488        1.47787641090765
C           -0.44325740833595        1.11951295790490        2.85921864336255
H           -1.66391214586100        0.86810442594384        4.58785921414077
C           -1.31832674648198        0.24699979629233        0.82028890151852
H           -3.26123754491729       -0.59014550307762        0.90804190008571
C           -0.29533843659135        0.90090612537894        1.49596511464393
H            0.34148125510461        1.61588512356864        3.41475353099750
H           -1.21187339938386        0.01579981707447       -0.22622373751276
C           -2.03213124920716       -2.84068904624835        3.21870378680935
C           -0.84091827401992       -2.65433225008928        3.90578820447730
C           -1.96665586687757       -3.03829830774955        1.84526799481642
C            0.36797688057960       -2.62513269628683        3.23629088960318
H           -0.85817248525184       -2.51296691551993        4.97733621136090
C           -0.76832239487358       -2.95809390094082        1.16524194350791
H           -2.86743926252761       -3.21469820893929        1.27863116320342
C            0.42348988891401       -2.74784225663772        1.85167158747449
H            1.28017415813266       -2.46689067242593        3.79550001727327
H           -0.78462630288022       -3.01295194242962        0.09040425514606
C            1.72459431713155       -2.50787767972326        1.15052518623204
H            1.60742983655104       -1.74207353237534        0.35391316447442
H            2.44881919551642       -2.13090346345346        1.87454328279797
C            0.96490566376230        1.30794213120699        0.79143247702471
H            1.75283798922151        1.47546187543845        1.53104850420539
H            1.30727701660609        0.50480850581604        0.10610489626509
C            3.59536216122650       -3.14310328622241       -0.16610282026139
H            4.04939861800923       -3.90304113383966       -0.79714891238418
H            3.30501903322973       -2.27396356063231       -0.77273630777032
H            4.30481166799437       -2.82856782947436        0.59502834668227
C            1.52508644452036       -4.24395432773427       -0.57210907957380
H            0.62426602015265       -4.66757008143970       -0.13862182635700
H            1.25885750810578       -3.44065823788479       -1.29259453793694
H            2.06714125318914       -5.02584989115676       -1.10028112601718
C            2.72373000323314       -4.68906246566862        1.47430957593128
H            3.39448441832529       -4.25774344807970        2.21604072961604
H            1.81743994119374       -5.03310809045053        1.97077542244486
H            3.21433430109338       -5.53426735628685        0.99396257715562
C            2.15961566184926        2.70632619521908       -0.72158756014356
H            2.13647357627994        3.58216475703820       -1.36655341469482
H            2.97136974214273        2.80589628870771       -0.00263577487732
H            2.32636432989786        1.81680981075281       -1.33411066680530
C           -0.17379836988141        2.44275162298529       -1.05864145026982
H            0.07385452378684        1.59478854194582       -1.71332330307484
H           -1.13954258344641        2.29919028758079       -0.58964491550651
H           -0.20671896678769        3.34752172966503       -1.65963219439418
C            0.57567677979175        3.70610418169693        0.82684992290694
H           -0.42503456641709        3.58815912314637        1.24681462231902
H            1.30578729102985        3.78244750518434        1.63124616722927
H            0.60022449252836        4.62008998544752        0.23603544909344
N            2.37883248105400       -3.66924934490685        0.47634392914727
N            0.87108556370662        2.55228010422013       -0.03119638117673
O           -0.61693726897858       -2.26759804990676       -4.62108582668129
H           -0.93735366846515       -1.35944213966576       -4.71107143496657
H            0.08315450520432       -2.19494166725241       -3.93866227499963
O           -2.20872789452749        2.83726156239092       -3.34374691857739
H           -2.75001948953602        3.06520397966278       -4.10015995985680
H           -1.82909476326847        1.93690188006179       -3.55616012639574
O           -2.60653695064283        3.41282371908269        1.05739846094164
H           -3.24420937647633        4.12059317536471        1.15807033536944
H           -2.96949327737827        2.84858440470648        0.33880760040321
O           -1.44493855445643        0.36628321183051       -3.79564977324598
H           -0.51915600776466        0.25850374135289       -3.39332722991877
H           -2.04168812588163       -0.01519334969862       -3.13208969726790
O           -3.17851815211575       -0.70867811273143       -1.82772905320094
H           -2.56745848392827       -1.50417636573422       -1.81929877339166
H           -3.97706695268491       -1.00075877921379       -2.26895606269547
O           -1.60390965840777       -2.76779780836740       -2.06668305119886
H           -0.66192877376359       -2.41234450420335       -2.05633242891418
H           -1.69817472847197       -2.96805942218205       -3.01005646752911
O           -3.51359525637846        2.02511888797650       -1.08489451863593
H           -3.09103476674060        2.41199385914466       -1.87976260783659
H           -3.39763368970905        1.06926222157110       -1.18462635523928
O            4.69446066750334       -2.25098310376517        2.87431009888138
H            5.29285521782742       -2.36891258734170        3.61481214573917
H            4.78624779579564       -1.34073262055854        2.58085773520569
C            1.24491691905651       -0.83088677539096       -1.97524928913148
O            0.80681394354926        0.19086993173579       -2.58271881791946
O            2.06849875518786       -0.68542129635694       -1.00639398160648
O            0.84487904165611       -2.00899423746221       -2.28645234002165
