101
 energy: -141.129666413527 gnorm: 0.000228567854 xtb: 6.5.0 (unknown)
C           -3.88629559323238       -3.83706177685250        2.17487363601874
C           -4.60814350948542       -2.78606558723429        1.33984126353101
H           -4.50391278361031       -4.72487024050619        2.29161357263388
H           -2.95300653268619       -4.12526483757249        1.69662362742091
H           -3.65418875858555       -3.44612931492776        3.16349771041089
C           -3.77549155058199       -1.50435212800844        1.18997841831520
H           -4.83207901472536       -3.19654025350500        0.35402514473144
H           -5.56094955518065       -2.54019834997199        1.81616421432809
C           -4.54830788542426       -0.43327710777689        0.39584584752281
H           -3.57543653490221       -1.11090796810327        2.19219500270769
H           -4.36746725725327       -0.56763171509557       -0.67075871836885
H           -5.62000457714510       -0.56525684865185        0.56766484536753
C           -4.18205329171837        1.00346274855014        0.79940350000385
C           -4.97621377366311        2.00302510092478       -0.05459582726645
H           -4.46658898503575        1.14562391928527        1.84729559059700
H           -4.67639818996294        1.90099119490124       -1.09878965792525
H           -6.03969687788598        1.76143713691898        0.01277313658040
C           -4.75792919881399        3.44098587523448        0.39929570414965
H           -5.34819009996376        4.12624316818151       -0.20494126379849
H           -5.04995393552846        3.56073700835142        1.44051989724219
H           -3.70915725109780        3.71353339413436        0.30536815141393
C           -2.70433688090031        1.27020381629130        0.68422963397248
C           -1.98445824881849        1.67893901178879        1.80023335934913
C           -2.02585102100006        1.11171132903502       -0.51760382688894
C           -0.62356091940744        1.91018483493106        1.72097103694859
H           -2.49375726427559        1.79807948304592        2.74593982818050
C           -0.66163930239818        1.32205735489235       -0.59448310535803
H           -2.55030864293981        0.78717029377576       -1.40173570989057
C            0.05970612449575        1.72903968831389        0.52307595918102
H           -0.08123416760009        2.20846538912848        2.60805480965387
H           -0.15760803682464        1.13338393790441       -1.52848162600508
C           -2.45415070447890       -1.78910236257485        0.52396310476041
C           -1.25960980873632       -1.45823542090044        1.14835221844352
C           -2.39551765189554       -2.32609158542178       -0.75619127638114
C           -0.05360827539135       -1.56572688180129        0.48332238462780
H           -1.27669428988307       -1.05233887017559        2.14881175199302
C           -1.18614765847093       -2.48538179293817       -1.40368484666296
H           -3.30330857116532       -2.59930140819940       -1.27209435343356
C            0.00363051659880       -2.08120350093028       -0.80814768825259
H            0.83746467221440       -1.19541758113554        0.96369799671493
H           -1.17481425594483       -2.88211232651176       -2.40831019235264
C            1.27251613014425       -2.09032083767911       -1.60598523631270
H            1.04265109914729       -2.24717033321342       -2.66001584091765
H            1.78351520894720       -1.11507815263790       -1.50842556750356
C            1.55024150898944        1.91852188165167        0.47055693384348
H            1.97564671923013        1.80184377640410        1.46999026898768
H            2.00828546657872        1.16039522520703       -0.17922006631345
C            3.47169388252255       -2.90645685214470       -2.08050159609297
H            4.24560187919206       -3.63069631320909       -1.84065307285978
H            3.19090241320799       -2.97142581830680       -3.13036467988505
H            3.85335502064767       -1.90253025172707       -1.89240368392640
C            1.75574968436470       -4.45949663961071       -1.40926008310439
H            0.84393049649583       -4.57610359942005       -0.82428052722222
H            1.52228263524485       -4.61645610006275       -2.46106330301429
H            2.48609941689928       -5.20257653309587       -1.09234028867505
C            2.72135456524499       -2.92523080046799        0.17455322923830
H            2.98261186911316       -1.87850152163041        0.31650243151078
H            1.92469044763367       -3.20954902683470        0.85691773933926
H            3.61214660540859       -3.51769661757171        0.37443042617278
C            3.44974961295175        3.35076353326573        0.07545334479722
H            3.78146276322105        4.34135777813187       -0.22566646809241
H            3.75538006618983        3.14301558668128        1.09809042573069
H            3.92508433987474        2.62661412101568       -0.59908925206780
C            1.59657694999779        3.42618600770583       -1.44791154231738
H            1.95221194502419        2.58149307831888       -2.03445935081875
H            0.51474808662278        3.49011528174063       -1.53808220164885
H            2.06606492608784        4.31899111823339       -1.85741273855191
C            1.37600251020772        4.32081722277340        0.76873138404608
H            0.29007546654030        4.24540671383718        0.73171110701626
H            1.70351443998968        4.22485192970733        1.80266473336689
H            1.68182964073407        5.29340311505828        0.38687951707614
N            2.29548766256200       -3.10940550854348       -1.21946262692209
N            1.98406996757409        3.25659200851330       -0.03913309278453
O           -4.65394242304772        0.37876114821048        4.20460523515202
H           -5.20488611948702       -0.32959113327698        3.86382630421632
H           -4.90575957987209        0.52183548957594        5.11885080445027
O            5.01467875915406        0.06431567366132        0.48049954425787
H            4.22540166233079        0.04875148162039       -0.22262318430103
H            5.64355630291706        0.64373449162533        0.04188009778235
O           -2.45724664744112        0.11570139102846       -3.55846289972853
H           -1.48901494448713        0.15806064445086       -3.46598588720968
H           -2.65464637682833        0.60373169818432       -4.35945476826906
O            4.14300695750859        4.01813186343050       -3.06910250429703
H            4.24024676375104        3.94028559238557       -4.01856254092336
H            4.31368627050361        3.09976393436736       -2.73640451616552
O            2.43363097967404       -1.57468722914963       -4.63096149608984
H            2.78740199289611       -1.36724710818545       -5.49617425053856
H            2.64936934793281       -0.76734456959327       -4.08292400794347
O            5.75528353423434       -2.55709370775826        0.29876094781900
H            5.46139035338122       -1.62245928017976        0.38211508946143
H            6.71092873740459       -2.51673241436175        0.25121788384114
O            0.29712712628012        0.26735843745811       -3.67295448021923
H            1.22970791792795        0.52340853829205       -3.44201402755038
H            0.43534970187947       -0.43968931861869       -4.30945910129608
O            3.89584951008358        1.39017087712642        2.52945528642872
H            4.30154684218249        1.01176191724472        3.30978410295412
H            4.28893633412428        0.89568674584469        1.76834263475184
C            3.52869895421273        0.75103909533903       -2.22161503950246
O            2.86469764952451        0.65596229353764       -3.29780161260930
O            3.18151146912725       -0.00571690792626       -1.21238875014444
O            4.46696245881539        1.56943434915613       -2.05959718565950
