101
 energy: -141.112611760073 gnorm: 0.000294368386 xtb: 6.5.0 (unknown)
C           -2.73286166128902       -5.23767459810437       -0.35468819526505
C           -3.38593750582354       -3.98148038688308       -0.91844338934891
H           -2.91540046766270       -6.08824678780281       -1.00738889367341
H           -1.65788142134276       -5.09859317211897       -0.26019982531039
H           -3.13582610394476       -5.46840560089194        0.62923648781364
C           -3.16223455434331       -2.76407948424891       -0.01006898177849
H           -2.98271330268190       -3.77758209863891       -1.91160975075408
H           -4.45987782023291       -4.14953058963455       -1.02476003006183
C           -3.90351032075670       -1.53528532712029       -0.56359664818224
H           -3.58338638739818       -3.00014873142871        0.97425371944962
H           -3.46993101524936       -1.24359161189230       -1.52007150149051
H           -4.94213559147127       -1.82507624189126       -0.74199350759207
C           -3.89845507987308       -0.32907050873380        0.39020642296865
C           -5.07364648159333        0.60520616432127        0.05788869078512
H           -4.05966209687470       -0.70667898138808        1.40651868032819
H           -4.95403026120629        0.99239522170642       -0.95482822696760
H           -5.99855937942127        0.02522528693033        0.08819851482920
C           -5.17032615649054        1.77289462937900        1.03414162154452
H           -6.02857135405443        2.39960860496495        0.79878744668232
H           -5.26727006923134        1.41215536531409        2.05731993963806
H           -4.27549594398647        2.38844115448584        0.98017276748363
C           -2.60284428071790        0.45301684708471        0.37891504095123
C           -1.86465040559271        0.55505524231365        1.62103108946218
C           -2.16289251668336        1.11676082422774       -0.69753282073550
C           -0.83806129699443        1.40407652748827        1.76506518255882
H           -2.18779521255031       -0.05710108234428        2.45050466402499
C           -0.88726078610534        1.90964055051193       -0.69737751012207
H           -2.66458025356347        1.04728812310941       -1.65061824772565
C           -0.44233575642327        2.29412910952700        0.69550383588645
H           -0.32391177914620        1.50460754284118        2.71029901178225
H           -0.98625823271015        2.81088364942168       -1.31691252245809
C           -1.69856872173791       -2.45881481313566        0.15462322173755
C           -1.10498073225868       -2.45528692453205        1.40957089398318
C           -0.91972218452635       -2.10909204116799       -0.94096243782589
C            0.19085775745709       -2.00312361247198        1.57861029952663
H           -1.67697362269048       -2.76666405328352        2.27250885762295
C            0.37410262658825       -1.65964319429977       -0.78033670574371
H           -1.34204230611905       -2.13291846787957       -1.93350452588428
C            0.92839865130788       -1.55345226443504        0.49090370184933
H            0.61039732027174       -1.94704054578489        2.57380149771643
H            0.91850564565315       -1.30746427161532       -1.64019705527551
C            2.21938962127551       -0.81597783347901        0.71089062512654
H            2.21103278646637        0.07259954345866        0.08021131784215
H            2.27873481043057       -0.49416838609357        1.75228193122009
C            0.25525250035778        3.40732276164757        0.93001488848991
H            0.60306850544473        3.64555728546748        1.92184681865814
H            0.48773456939310        4.11016568645545        0.15011308064003
C            4.61479403664047       -0.71620771324030        0.78724877450722
H            5.54513707167509       -1.26385394872280        0.65682906907779
H            4.65489275017153        0.16396379479679        0.15022916094415
H            4.50733568615718       -0.39445170259030        1.82089603481710
C            3.57014358362851       -1.82807101552877       -1.05483856154971
H            2.92785859695804       -2.66253456727810       -1.32423175324327
H            3.24844118581883       -0.94613717415493       -1.61207433773802
H            4.60238483468107       -2.04867518443940       -1.32033228938999
C            3.51501338171587       -2.81488994942487        1.14492300641164
H            3.53162589644113       -2.60179727798702        2.21254818438864
H            2.63131940949461       -3.41038876965976        0.91882038434232
H            4.40809701116227       -3.37774161629872        0.87869492486257
C            4.89617262223657        5.70651498330564       -2.89492681815743
H            4.36516793069022        6.41825877426185       -3.54258937032844
H            5.96340768815275        5.77903623791770       -3.10099623391958
H            4.56142963842339        4.69887748209297       -3.13137371330662
C            3.26183808706467        5.81100455622031       -1.14243679408885
H            2.93595961944640        4.81123406322319       -1.41626966268490
H            3.13800739406044        5.93784675611670       -0.06764005950177
H            2.62060761231000        6.53957681012494       -1.65529508162935
C            5.15221678038604        7.28247646416501       -1.10768675443633
H            5.00533675555599        7.42659208874543       -0.03793927352082
H            6.21787665119787        7.34686972569736       -1.32467476324989
H            4.63484530931358        8.09159305922559       -1.64375135671451
N            3.47497379353880       -1.55726886894841        0.39050603338220
N            4.66648573826801        5.96836742458391       -1.48432218668975
O            5.94783190911817        4.05206266773663        0.03892251157754
H            5.59561679047652        4.74665051571575       -0.56090045720845
H            5.23421326173426        3.88472821756412        0.66380645187517
O            3.35297418364789        2.62547306744670        0.54554842765014
H            4.04285178629885        2.23835329238912       -0.02729546370580
H            2.60488358753888        2.79262153495770       -0.05073797047849
O           -8.12064052372685       -0.22829449289455        1.69038665069440
H           -8.95607100628823        0.22722243309115        1.57128803260813
H           -7.45377092826802        0.44288169797387        1.85500987437791
O            3.21077881963532        1.17974208247725        2.84920570405001
H            3.21459337785269        1.72003268236130        2.03083308101747
H            3.18088812231977        1.80898360145181        3.57041413617181
O            0.20726868928570        4.87468413008886       -2.55310704911156
H            0.66840255101986        4.09436279564523       -2.19470384417451
H            0.65000117657744        5.07511207620613       -3.37895775416557
O            6.52941899704977       -0.75547678343141       -1.63544687654977
H            6.14406684476717        0.12943293822539       -1.48911010018136
H            7.24928924773373       -0.62467779609130       -2.25318750869746
O            3.81622351961948        2.56695024790723       -3.15451961383181
H            3.61154843057341        1.74480826586725       -3.60986009112318
H            3.01308955753592        2.71650959937895       -2.59753751772380
O            5.35631763026408        1.71609522399439       -1.15240548633844
H            4.86542643117869        2.02503930465935       -1.95208860556832
H            5.83353484536529        2.50512380528049       -0.81986636482772
C            1.28676407519808        1.47886120315443       -1.75601535567636
O            1.59505452370633        2.68837224642295       -1.64581029675085
O            0.07534434839022        1.03452037842169       -1.31380587853466
O            2.01547868538275        0.59751748880719       -2.20998753398432
