101
 energy: -141.111539629193 gnorm: 0.000198304702 xtb: 6.5.0 (unknown)
C           -4.05284165733788       -3.09161272309231        1.92328423782880
C           -4.44483767818555       -2.07307606007103        0.85876497146904
H           -4.90153071272002       -3.72739274272162        2.16367976754831
H           -3.24163887072145       -3.72384288274409        1.57319808024699
H           -3.72993086708293       -2.58582549667073        2.83066100405031
C           -3.30585124908523       -1.09011006143368        0.54413937799322
H           -4.75191549678309       -2.58953842540948       -0.05051033187553
H           -5.30153905815281       -1.49856003296624        1.21864839641792
C           -3.78782540471626        0.00562138643130       -0.42790766623592
H           -3.04018588339916       -0.59488133575189        1.48532132841502
H           -3.63819649628464       -0.29783037507514       -1.46272707768620
H           -4.86457147946366        0.12494556503021       -0.28457274480900
C           -3.14736900580008        1.39216029194021       -0.20553835226626
C           -3.82087154654650        2.42188274096974       -1.12296227094818
H           -3.34384995684979        1.68870257811475        0.83189085412446
H           -3.71813381203560        2.11194099712540       -2.16390419382214
H           -4.88870189629444        2.44656219823800       -0.89348319537492
C           -3.23587665598696        3.81784405395253       -0.94944057069147
H           -3.77012621470176        4.53369168466452       -1.57015649265055
H           -3.31194957898510        4.13798804400818        0.08782088068878
H           -2.18723725440854        3.82743136187046       -1.23544534624797
C           -1.65476737221377        1.32684841848601       -0.39396099764490
C           -0.81279809423465        1.35047660546535        0.70911516980196
C           -1.07551369372057        1.16528848323271       -1.64876233551323
C            0.52779737848142        1.02916666613609        0.58675344280863
H           -1.22107876179925        1.54843784483170        1.69040191313358
C            0.26968245453461        0.88012749720866       -1.77462262208558
H           -1.68806537768748        1.21176767001749       -2.53635251908082
C            1.07096340734283        0.70718728729276       -0.64950710775628
H            1.13390696184201        0.95793486886754        1.47961383674739
H            0.69699143758513        0.72334481167376       -2.75358269521896
C           -2.04061752241887       -1.83039161351373        0.10140250386426
C           -0.91476068297272       -1.78554507056245        1.04402830715400
C           -1.65860313869490       -2.04204049554621       -1.33155055095625
C            0.36031529711084       -1.90400595051494        0.64410696867910
H           -1.15786857175872       -1.62995765982321        2.08227994100964
C           -0.24541646137353       -1.97115807300406       -1.68299497930402
H           -2.34139555227457       -1.73842562709114       -2.11646089715523
C            0.72282775076504       -1.90016056460795       -0.74909888611783
H            1.15885736791718       -1.87954317675629        1.36846604156428
H           -0.01820883626018       -1.85354492710861       -2.73189712014624
C            2.12878734160694       -1.51907420265062       -1.10586275426300
H            2.28062494485487       -1.67366476921078       -2.17409332200654
H            2.83736990487891       -2.13619867842182       -0.55135816988219
C            2.38147470982337       -0.01636449327041       -0.75588720205035
H            2.91103311680160        0.04014943241315        0.19573679385411
H            3.00812076368328        0.42898883127485       -1.52872619970771
C            4.98413193109166       -2.67310617330902        1.35477862820901
H            5.72391977738091       -3.25787641457822        1.92330452949361
H            5.49552419051006       -2.16721166830385        0.53672598090632
H            4.55399170563831       -1.92185739536666        2.01536495248913
C            4.42601414571886       -4.47618788466856       -0.11717575760444
H            3.58889220677635       -5.02658431655429       -0.54561129407185
H            4.95607740984170       -3.96795202862594       -0.92172625269088
H            5.11308392222039       -5.19532125611490        0.35594173728827
C            3.14921126301821       -4.11831779874925        1.87367487221857
H            2.77078659532280       -3.34533412379228        2.53954479695352
H            2.30766636846817       -4.65090933493452        1.43258109984558
H            3.74593616230541       -4.83072322971352        2.46419611371866
C            1.98284348359868        6.27164369262654       -0.71085932096751
H            1.28953246260588        7.01666339464833       -1.12695213159302
H            2.31845144921260        6.61484204156914        0.26678487311393
H            2.84632086592307        6.19274745308258       -1.36892425610925
C            0.99002095054191        4.42342475766842       -1.86820872549258
H            1.88092968079124        4.30666551860015       -2.48254981133311
H            0.53998064090543        3.44225040338496       -1.72795880969570
H            0.27465010903754        5.07088204740932       -2.39437727322082
C            0.24861384288273        4.99418180773863        0.34357681079280
H           -0.15076643692170        3.98637402648871        0.45268925212422
H            0.59311956651205        5.34311952384843        1.31640525786756
H           -0.55726465120391        5.65757270834128       -0.00106991159379
N            3.91755328857572       -3.49238810007136        0.81607574967811
N            1.37224964622727        4.96240062391018       -0.57413528366297
O            1.39977946107054       -1.97795320169072        3.95432144554027
H            1.81367430716364       -1.84002962225195        4.80787768942219
H            0.46889658513387       -1.71412019242879        4.05637812031802
O           -4.36643338127008       -4.19358111565698       -1.99071897462131
H           -3.89606178244064       -4.66180533875677       -2.70113072156340
H           -3.68764671604989       -3.96698425386909       -1.33764882489753
O            3.26844832241501        3.15998745904940        0.29184289560121
H            2.72250730439342        2.40327861551984        0.51757386100109
H            2.63903857847208        3.86862462797884        0.03394831141376
O           -0.24700482259348       -4.25865981980301        3.42236889982104
H            0.57263225403560       -3.74385103277968        3.45822724439143
H           -0.38190085060116       -4.47748138777524        2.49643866595127
O           -2.58383642044618       -4.42765116465490       -4.09620403931999
H           -2.83053082007314       -3.49117780293075       -4.14150893966740
H           -1.73945306093984       -4.47262943975187       -3.64050099494112
O           -1.37275252677015       -2.00085711920939        4.39978508472578
H           -1.18929661350784       -2.90204590136787        4.05830765851869
H           -1.77758536780934       -2.11766449529829        5.26032501031005
O            4.11877362340354        2.51572575647980       -2.24095784650982
H            3.86150833324311        2.75320153375949       -1.32817139051580
H            5.06130159020975        2.67801059385851       -2.29654638438476
O           -4.05850216948551       -2.01965992099130       -3.57541514787734
H           -4.77903679214330       -1.89641826768204       -4.19473588213683
H           -4.35794527281618       -2.71283672449228       -2.94559079358139
C           -0.42735758615812       -4.95705049967399       -0.67763571525596
O           -0.23102666245807       -4.97036668413841        0.45038782195074
O           -2.16860125421040       -3.09672103174252       -0.54283450483329
O           -0.57051261577842       -5.01321088338985       -1.81077477983024
