101
 energy: -141.016008486124 gnorm: 0.000334487702 xtb: 6.5.0 (unknown)
C           -3.52118197033245       -5.17641844834192        0.65667164561247
C           -4.29410583906648       -4.05658681380357       -0.02936649617744
H           -3.93963673972935       -6.14561990702635        0.39416412190187
H           -2.47704335161549       -5.15656164949141        0.35394822440400
H           -3.56735214084173       -5.06307754874059        1.73782093383223
C           -3.76980753393376       -2.66553013113877        0.35579423393487
H           -4.24703390346868       -4.18986927107566       -1.11098098498347
H           -5.34525551491290       -4.11944073335028        0.26265770740703
C           -4.58696120235875       -1.56336635220499       -0.33509177284409
H           -3.91006776307980       -2.55685357472439        1.43688295337125
H           -4.18526718332770       -1.38365053429907       -1.33355731390012
H           -5.61778046893977       -1.90929279469945       -0.45246320733692
C           -4.61554110994950       -0.25453328505775        0.46611605990770
C           -5.53501344253217        0.75589248693369       -0.24510206287914
H           -5.06174322332309       -0.47764014619772        1.44349770951246
H           -5.03315876342485        1.12844973192730       -1.13981942939134
H           -6.44516831951645        0.24044821263294       -0.56580516841725
C           -5.91922951839442        1.92954726827718        0.64581209617839
H           -6.57071971286330        2.61448526749197        0.10723909986234
H           -6.44943772042231        1.57877581707690        1.52916987200731
H           -5.03976752789767        2.47687267208145        0.96976749487072
C           -3.25309766867177        0.34458105846226        0.70043594854029
C           -2.84678291771334        0.71069175905003        1.98982723993528
C           -2.41824100687946        0.70935091908352       -0.35628268328530
C           -1.68006230080859        1.39225095372452        2.21961204360879
H           -3.47971810162969        0.45252185975960        2.83045178940509
C           -1.23366340380959        1.36298010229227       -0.14600894409171
H           -2.69974017027776        0.44689778567593       -1.36726661073880
C           -0.81325004283564        1.77677950494052        1.15319573782501
H           -1.39439628623318        1.65136773355326        3.23262842140846
H           -0.60821322197212        1.62410922721674       -0.98758598594845
C           -2.29365378610739       -2.49859843446430        0.06679178354401
C           -1.49394174330732       -1.92701839355763        1.12334165096864
C           -1.81804215921447       -2.85454617447492       -1.13356679798013
C           -0.29173570832676       -1.31675011307305        1.00885248858489
H           -1.93904157426407       -1.95448720670811        2.10749670494067
C            0.27676880043387       -1.77334516315082       -1.35771267632817
H           -2.45400863384799       -3.21201940271194       -1.93153422623412
C            0.45959570374251       -1.09455426425660       -0.20388625215407
H            0.10581754084313       -0.86056103130650        1.90266881334408
H            0.78603199006588       -1.50686856311080       -2.27487543566036
C            1.51994010883751       -0.03717778223245       -0.16783413227134
H            1.62896147131925        0.42541979065122       -1.14855026825770
H            1.23740501103044        0.73544856698387        0.56380310463743
C            0.36005952109569        2.47352933800509        1.36355140953035
H            0.70082615333338        2.70080700199991        2.36065381624729
H            0.98744655066884        2.77896238045449        0.54221994800941
C            3.75461437178889        0.63655133901994        0.39173955816098
H            4.76739485957974        0.32011012892236        0.63594999270732
H            3.76626649726866        1.22959729797805       -0.53216110987918
H            3.37458912760811        1.25935253095773        1.19932738643681
C            3.42543867780948       -1.40703681637632       -0.82926840217634
H            2.78215588072728       -2.27909051137139       -0.93798077521228
H            3.46821695067560       -0.86255442214034       -1.76970435586845
H            4.42683360824382       -1.73807384719200       -0.55951981798738
C            2.82601383442473       -1.29999094321803        1.47805282057632
H            2.37257418304707       -0.69353480588707        2.25824589082078
H            2.23457829496536       -2.20383914468328        1.32815910169863
H            3.83230559093883       -1.58145629483394        1.78454507151685
C            3.76154893276787        1.73644060864421       -3.43234562940676
H            3.89190353091963        2.42664276162155       -4.27710656395594
H            4.58331279245116        1.01934785849949       -3.44559833779428
H            2.82023323854596        1.20788973192571       -3.56598007150437
C            2.61252253122094        3.33352213635750       -2.06925549692647
H            1.69024366826195        2.78003896139153       -2.23106191373928
H            2.58858608396770        3.78431378016303       -1.07872254807660
H            2.66867346663242        4.13724685564572       -2.81468357149948
C            4.99212413650972        3.14231342436332       -1.94066619427480
H            4.96664879063314        3.62252954526984       -0.96360935072753
H            5.82332713740019        2.43765944128588       -1.96439005802816
H            5.16719937447770        3.91348047685181       -2.70344366605046
N            2.88478451186083       -0.53739977875690        0.22331239809998
N            3.74637299532965        2.42462195841275       -2.15257568289628
O           -2.02987840867733        6.02298245650147        2.68323387819314
H           -1.73076740049416        5.98366069112544        3.59208336724861
H           -1.22741898070816        5.87174633658210        2.12399297547567
O           -2.69171600624248        4.12543233589862       -0.90692452438879
H           -3.41779934892274        3.93287497538806       -1.51531249075452
H           -3.02945094728365        4.01935012971269        0.01367136927725
O           -0.91760850320317        6.05995243809313       -1.32478511732319
H           -1.32513336579290        6.92030104815514       -1.21751279315481
H           -1.63648746491832        5.40191934005433       -1.17740634592074
O           -0.85740471551279        3.43912628828407       -2.83553881018480
H           -0.48896471973560        4.32818266177090       -2.85229380917078
H           -1.35906104328885        3.41253882107947       -1.99928415293031
O            1.54895225216309       -4.02505318680575        0.27925087097669
H            1.33561157888824       -4.87775540392816        0.66115260879331
H            0.78181090842484       -3.77517349178941       -0.25895290801283
O            0.05104853583346        5.38229554236931        1.17089320808856
H            0.02870922943700        4.40159509461197        1.19306364506567
H           -0.16735275034751        5.63666692852994        0.25547419288349
O           -3.39723336856272        3.92119332230385        1.64088110321720
H           -3.01156824017666        4.72285859041840        2.05005197007889
H           -2.86788148972093        3.16807306284163        1.94044319085073
O           -3.67746953761336        3.30568944723509       -3.39991142084094
H           -2.71814258293721        3.40263319164891       -3.49864903924042
H           -3.84861071236281        2.36573193129788       -3.48689835937387
C           -0.72169555400417        0.89180008174160       -3.60789297278362
O           -0.47126902756415       -2.93270887602107       -1.49403162116198
O           -1.84243672845881        0.92618122952646       -3.82141908955665
O            0.40518137606298        0.80014259714247       -3.42340004352037
