101
 energy: -141.135173419589 gnorm: 0.000363263332 xtb: 6.5.0 (unknown)
C           -3.41116358636792       -4.14006078316489        2.18623518632133
C           -3.85161588939416       -3.11685251541661        1.14639771248782
H           -3.94396259297321       -5.07793881936171        2.04782538358222
H           -2.34379742603309       -4.33316407063455        2.10185795395346
H           -3.61461476210542       -3.77541259252849        3.19080957779192
C           -3.13577417145750       -1.77140708492131        1.32795250997455
H           -3.65406625672348       -3.50779943903422        0.14690279523105
H           -4.92876943226087       -2.95627918244611        1.23054411810857
C           -3.67455211192348       -0.73565903394418        0.32473792726240
H           -3.36080778688862       -1.40678632401917        2.33693014589758
H           -3.54360828187307       -1.11231690541524       -0.69032826540822
H           -4.74792264847643       -0.63350139180963        0.50190707385674
C           -3.00705872535344        0.64635815548135        0.46438229749996
C           -3.93942759111577        1.78759785315427        0.01769593224903
H           -2.78616689110485        0.80577946668327        1.52463454521522
H           -3.87261875987831        1.91478008807773       -1.06440257458121
H           -4.97555162303756        1.53068353273010        0.25324424265122
C           -3.58442405473591        3.09616558101873        0.71628431538149
H           -4.10294906779806        3.93298352301506        0.25263344231045
H           -3.87826044210405        3.05565031356013        1.76316585714826
H           -2.51289302365231        3.28179994109757        0.68639555473981
C           -1.70971645863420        0.70008258444909       -0.30497758113508
C           -0.50140743227256        0.93542453834254        0.33409360847928
C           -1.68658531705989        0.49506185185818       -1.68011195239760
C            0.69674346116465        0.88894866634102       -0.35489111413029
H           -0.49268753861935        1.14774482804767        1.39070887324988
C           -0.49557463963090        0.48655069353339       -2.37828397711193
H           -2.60982604128949        0.33324416452848       -2.21852743156432
C            0.71964197890462        0.66018636967075       -1.72445032419917
H            1.61296446353255        1.02554071080782        0.19458732053921
H           -0.50887686294213        0.31781523648536       -3.44605561598115
C           -1.64227163008611       -1.90954851342948        1.20373129634103
C           -0.81239927107630       -1.46961338412594        2.22682369706037
C           -1.05193806764330       -2.41454042920628        0.05128059070899
C            0.56198290620618       -1.45551412010188        2.07786297951987
H           -1.24922412532977       -1.08763407752884        3.13860526847343
C            0.32094697287257       -2.43165643938092       -0.08909260902260
H           -1.66862298234192       -2.77199970201340       -0.75904045715827
C            1.14620971590329       -1.92578056305283        0.90897231951442
H            1.17332513100406       -1.02227575713576        2.85484615479974
H            0.76254641527146       -2.80368901680699       -1.00103537913380
C            2.62022084966006       -1.79531532959547        0.64924585564390
H            2.79122356191800       -1.91285461628234       -0.42408108432030
H            2.96966802459782       -0.81775918347621        0.98665797012499
C            1.99746588230499        0.51773763665120       -2.50824016510199
H            2.68365600778592       -0.16304037546858       -2.00121129014568
H            1.76171644531285        0.08013568234288       -3.48081709340277
C            4.86346796643086       -2.57760889520828        0.84001871161925
H            5.52509858126350       -3.34236090757332        1.24166964395621
H            4.88714909801654       -2.64189928796633       -0.24501790578806
H            5.18879666419845       -1.58969630962307        1.15678436451951
C            3.06389955921086       -4.15954468281293        0.89105311376601
H            2.06763445935233       -4.37160051053284        1.27144697878848
H            3.05146561595707       -4.17562521054809       -0.20364368852134
H            3.77405741231269       -4.89979047444992        1.25149632190387
C            3.45186855406894       -2.68859671921774        2.76555488409318
H            3.69143870441120       -1.66194643381383        3.04224216032720
H            2.46154396955352       -2.94131384573582        3.13764021538303
H            4.18047013906740       -3.36672870075013        3.20623124587417
C            3.76565142789463        1.50801609078047       -3.79469689152157
H            4.34343555343725        2.40836811923666       -3.99002642239842
H            4.42319582133038        0.71357806338464       -3.44270118437895
H            3.29401810066418        1.16999723550182       -4.71510524964448
C            1.84319083213520        2.83501712002110       -3.24008927238739
H            1.36210407882310        2.52032830279493       -4.16343220019336
H            1.08115099822812        3.04570300333378       -2.49069360088116
H            2.40382187282661        3.75361236764954       -3.40351801797365
C            3.44599741822041        2.23564022790083       -1.55344056997304
H            2.72396831701550        2.57651883232022       -0.81342188314085
H            4.05492162205556        1.42833005986141       -1.15387590561945
H            4.07667248564560        3.08877951561954       -1.79494460760668
N            3.48815345120420       -2.81532133088341        1.30488680705283
N            2.75121693742846        1.78194981103293       -2.76618748515886
O            5.88884692038033       -5.49173003745855        0.80775595249207
H            5.72097404742479       -5.25004463804514       -0.13737914992494
H            6.65681838834380       -6.06309636784274        0.79182112659123
O            5.41248872680300       -4.88485272409422       -1.75759767978223
H            4.58956502524026       -4.24773354599341       -1.84472198975430
H            5.16839684584525       -5.67602295910271       -2.23778875639371
O            3.84135203327025        0.62522248749958        2.22825351712724
H            4.65186451122944        1.09148243573736        2.43894064544866
H            3.15296705108397        1.32893980310075        2.25038252273824
O            3.07642394470190        5.28962439214626       -1.85637764988640
H            3.01877073463766        6.22090015785768       -1.64103593169955
H            2.49051962312776        4.84114369397111       -1.20804074596770
O            2.14648278302603        2.70396493805676        2.26771841161155
H            2.05602459674047        3.23222477616679        1.43762062252458
H            1.26653111790055        2.76512345687252        2.64873401723553
O            3.41025227322207       -3.36551351044588       -1.94531141600824
H            2.90537827686546       -3.67013421565539       -2.69783005800006
H            4.04391596921023       -2.24753796764313       -2.41263067024202
O            2.99142552708685       -1.20686325214298       -4.98303148682930
H           -1.26311901193333        4.17723386117061       -1.04067020683256
H            3.09416577527415       -2.02497050773868       -5.46960074978523
O            4.57039777912802       -1.37027650292691       -2.80776441420021
H            3.58245841571158       -1.28386025732219       -4.19448811790437
H            5.43954262791773       -1.71178517335213       -3.01885693656345
C            0.31319127934520        3.97050357169416        0.05228434075795
O           -0.30942223591865        4.15178640220918       -1.18274826286711
O           -0.39012933225271        3.82214893271047        1.03543974081769
O            1.55919820941984        3.95295356236418       -0.01667508911649
