101
 energy: -141.094888000351 gnorm: 0.000215357201 xtb: 6.5.0 (unknown)
C           -3.65850454319520       -3.97244555204952        1.84394061306239
C           -4.40193426027842       -3.01758146152222        0.91846232760957
H           -4.19052869766769       -4.91841938947357        1.91988516851040
H           -2.65662160635489       -4.16779578088897        1.47079089208978
H           -3.56975574194962       -3.54532245059910        2.83948559078785
C           -3.72342076834707       -1.63860009589522        0.83487647315320
H           -4.46524344241211       -3.45490929768200       -0.08063043302150
H           -5.42218991849114       -2.88514372357479        1.28826165183343
C           -4.57633341097477       -0.67606730003417       -0.00669981321595
H           -3.65762385699582       -1.23934085721000        1.85194555707567
H           -4.37928906152459       -0.82061506437799       -1.06919640493828
H           -5.63217535826749       -0.90150750656967        0.16628989041584
C           -4.33802928465156        0.79597962731365        0.35896222793609
C           -5.30084552483381        1.71279925057534       -0.40797362845567
H           -4.54120468180656        0.91147365740013        1.42904288666883
H           -5.10523732434886        1.63628871904060       -1.47852225540223
H           -6.32276900889778        1.36962558848971       -0.23100339596902
C           -5.17697715325690        3.16373140500981        0.04905968815753
H           -5.96142400487896        3.77985460775488       -0.39135524532556
H           -5.28221205960011        3.22633115234516        1.12992704350863
H           -4.20336379885217        3.57294330508354       -0.21355721131666
C           -2.89931723821544        1.15661931236031        0.11345537859022
C           -2.05222277835800        1.41402627161381        1.18237246063777
C           -2.36875809475226        1.17093939244874       -1.17061514340304
C           -0.70751487672300        1.65959492030711        0.98253627335916
H           -2.43612841055718        1.36653202893653        2.18984646275813
C           -1.02567166655658        1.43764284648423       -1.37336161989006
H           -2.99712860470684        0.95053519809678       -2.02037139911595
C           -0.17686758155609        1.68618780982383       -0.30207417949440
H           -0.06859213044893        1.77123474006469        1.84256595910399
H           -0.62445758472246        1.42051090491259       -2.37650829311098
C           -2.31467422444933       -1.82039145591147        0.32240767087655
C           -1.26023679744731       -1.64035586598012        1.12556522539763
C           -2.10241489545783       -2.29275763455000       -1.02719569228010
C            0.14882986592206       -1.98310580960998        0.74925866881761
H           -1.38980795142032       -1.24575803791674        2.12058469368065
C           -0.87816355287725       -2.60779252770657       -1.47735402757303
H           -2.95806158142117       -2.38516544062257       -1.68088478186580
C            0.29863837952532       -2.54939171108774       -0.64401176084789
H            0.51200086230531       -2.72175306284974        1.48428044495540
H           -0.73400560852204       -2.94642077342691       -2.49473734975243
C            1.49258391825366       -2.97638820396173       -1.06485143221559
H            1.62839969291065       -3.36492954785991       -2.06103337507921
H            2.35266489441786       -2.95708634869108       -0.41751051994924
C            1.29395209610491        1.85119295261548       -0.55878766693267
H            1.83174545528553        1.13969362332029        0.07714931390950
H            1.49131351607331        1.61687742693178       -1.60525313572241
C            4.55399594262429       -2.40288954934970        1.66719849244891
H            5.34915738126683       -2.58175795219685        2.41056664170785
H            5.01502876292475       -2.09477260092625        0.72807389044719
H            3.91576837315666       -1.59941825793502        2.02855814985962
C            4.52385864861809       -4.67582841707526        0.92354741525984
H            3.86287383950661       -5.51337918795288        0.70351515220634
H            5.01810981901536       -4.37056944324664        0.00125015914107
H            5.29347431911593       -5.01455252941557        1.63751374191678
C            3.00404155987164       -3.95163816335771        2.62226115703299
H            2.42069114686024       -3.10142241237420        2.96991910976428
H            2.32467350696102       -4.76816830776781        2.37967652678139
H            3.66736968386069       -4.27614320780953        3.43985382668286
C            3.22883917457895        3.24442592461052       -0.81130720389467
H            3.66406458221995        4.22845993401897       -0.64597198216233
H            3.83715950215066        2.49438408979227       -0.30178232330946
H            3.22510206990519        3.03915980531727       -1.87958325761603
C            1.05068611761890        4.23465465294772       -0.97423742617471
H            1.05730953913954        4.06100115226155       -2.04927777522074
H            0.01877900506484        4.19123178735318       -0.63116743691603
H            1.45506961287682        5.22386901075811       -0.76807566123607
C            1.88790018347670        3.48682286492687        1.15588422587189
H            0.88775127295588        3.71682691099205        1.51371371602876
H            2.26081493612469        2.60861872461928        1.68644081290332
H            2.53844230369377        4.33575129842441        1.35637721936594
N            3.73667736545470       -3.57331337102912        1.43053017489979
N            1.85326640776244        3.21160884812787       -0.29019402651178
O           -0.03583562623562        0.18721527091420        5.12144762215618
H            0.50989057232351       -0.12570364668317        4.36648172681909
H           -0.02855421210385       -0.56090132768637        5.72671335790709
O           -2.24137913219856        4.09679965237981       -2.45434685562416
H           -3.08711208032956        4.28278578705406       -2.88510729397142
H           -2.30580617433563        3.18837463281773       -2.12883256230504
O           -2.52391721153393       -0.22369248921615        4.15703726038759
H           -3.05896970039451       -0.22191065088148        4.95210979431046
H           -1.62035457375098        0.04408654685926        4.44733278545287
O            0.10840283138079        3.74103184830488       -3.87090611376592
H           -0.73102742007397        3.93272735734528       -3.41172273694957
H           -0.09624105359198        3.70218139214164       -4.80582568556536
O           -4.95148548443347        4.47509914322249       -3.23006993791459
H           -5.30672922018261        5.35364941554387       -3.37914021793899
H           -5.26621369377345        4.17566771533448       -2.36975179902087
O            4.57294616018221        1.09330163436434        0.85535652485830
H            5.25705529686855        0.53891318883489        1.23137380862475
H            3.74216676145695        0.81614357506743        1.30159967306481
O           -0.81499547160572       -2.62061810626116        4.51471602309565
H           -1.56035016910958       -2.06605141782501        4.25247181778954
H           -0.06630035758628       -2.28904957120452        3.99838585873835
O           -4.25332370408244        1.76808013794412       -3.85614310233196
H           -4.46973367255364        1.36332693416384       -4.69705635339851
H           -4.52743654561548        2.69087636849724       -3.90645445132522
C            1.48773603362959       -0.46712717794196        2.07320105560336
O            1.13647872076464       -1.08639716830149        3.07792813056349
O            1.01419217471473       -0.84676734235183        0.83529419906849
O            2.24076263585696        0.51986600654738        2.02170116418836
