101
 energy: -141.138281958778 gnorm: 0.000482412792 xtb: 6.5.0 (unknown)
C           -4.22311562580329       -5.18857323654629        0.37046091840640
C           -4.88976232945139       -4.25598449249761       -0.63352488291916
H           -4.51294339175048       -6.21986651413565        0.18303198415956
H           -3.14019444041644       -5.11529842179134        0.29991828870106
H           -4.51708646788404       -4.92814433771067        1.38490177404121
C           -4.52763487581799       -2.78578318358823       -0.37933098252039
H           -4.59987173528280       -4.54194849070671       -1.64600118513160
H           -5.97424453947067       -4.36677881889851       -0.56095807432525
C           -5.25331241905086       -1.87433561767499       -1.38559566248002
H           -4.88333169338272       -2.52853638305597        0.62503203920926
H           -4.80324324818007       -1.99349510203371       -2.37251649582745
H           -6.29093803774110       -2.21153916696984       -1.45254634395071
C           -5.26023872988056       -0.38589675484139       -0.99148297038613
C           -6.42968944240493        0.34014650029987       -1.67713718053895
H           -5.42257427442612       -0.32174421763891        0.09015778134613
H           -6.31669020795235        0.27697073417649       -2.76094461698245
H           -7.36162942830579       -0.16437620660299       -1.41195613217023
C           -6.51933927588916        1.80309209048334       -1.26013096104171
H           -7.36988052425184        2.28303648895475       -1.73855221799702
H           -6.64051350175717        1.88509749667701       -0.18227154056773
H           -5.61599328765481        2.33867331262403       -1.54320542789517
C           -3.95647498739024        0.30038357471797       -1.31175253522491
C           -3.17109370998512        0.84149608223978       -0.30185331673489
C           -3.50803258085671        0.42338131764796       -2.62116607045230
C           -1.95109860141839        1.42998683893588       -0.57579417218489
H           -3.50231995414138        0.78421762855288        0.72331536445298
C           -2.31647805244050        1.06406191856455       -2.90705689480351
H           -4.09387698294985        0.02039535099321       -3.43442425895128
C           -1.50994764122680        1.56176756541205       -1.88794616104449
H           -1.33166204386543        1.75944835764730        0.24322097704009
H           -1.99502605654981        1.14986426556011       -3.93530957066666
C           -3.03990075055126       -2.55263985596632       -0.42094687955119
C           -2.41662105171173       -1.84647684409712        0.59844482191935
C           -2.25697939227206       -2.98546483567119       -1.48407815036831
C           -1.08105039355941       -1.49720456342824        0.52802519907900
H           -2.99391816911016       -1.52596955357401        1.45251309525488
C           -0.90308616812617       -2.70900347412266       -1.52096380346849
H           -2.70187296649187       -3.54559279251811       -2.29346024851361
C           -0.29746122725940       -1.93397194551326       -0.53462594288776
H           -0.67884806145582       -0.84490471896337        1.28619063407792
H           -0.30475927210056       -3.09011086180853       -2.33797323968530
C            1.12657257321283       -1.50088806732927       -0.71796202005622
H            1.45688839508271       -1.76691994083155       -1.72246664534129
H            1.21224593419248       -0.40501056387757       -0.60059964342050
C           -0.17090881410228        2.16791011964993       -2.19955100884306
H            0.57067764977153        1.84057710979345       -1.45217470161145
H            0.17104275618745        1.82133637605889       -3.17717821778234
C            3.43826384839131       -1.48816238792707       -0.17018513142860
H            4.19774846556161       -1.73664891751342        0.56559945049962
H            3.72886581419829       -1.84590891570108       -1.15453778751387
H            3.32006308169544       -0.40160665402493       -0.19382059401197
C            2.18782322459153       -3.53486170912438        0.04919560305604
H            1.21990331432650       -3.96486448187729        0.30317935983076
H            2.42629323522914       -3.77133098705924       -0.98774703229647
H            2.95113024884690       -3.95621575172713        0.70055203353401
C            1.86422946234834       -1.72103113268020        1.60621466125625
H            1.78440741853140       -0.63070426393499        1.68934204490253
H            0.94552715227810       -2.19035798965542        1.94589887926898
H            2.69162513402013       -2.03742902495874        2.23741104583599
C           -0.93662013027639        4.16382144085899       -3.34805642233146
H           -0.92020836168421        5.25239000618129       -3.34513844921528
H           -0.52089841439779        3.80441362516741       -4.28825464366215
H           -1.96632501566683        3.81945628609472       -3.25882801343489
C           -0.65160168665333        4.22639200541829       -0.96472369877506
H           -1.69525858709721        3.96119917023249       -0.81854211842868
H           -0.03409337977238        3.83443038107562       -0.14980947441872
H           -0.53946579075359        5.30824106936921       -0.98980888830458
C            1.26160937535643        4.08338540711665       -2.36233885735647
H            1.79049234373235        3.76859033162381       -1.45483378142189
H            1.72238020491806        3.61420132596555       -3.22750785452063
H            1.31205418917434        5.16681745245196       -2.43521682265135
N            2.14198690639624       -2.07690640947433        0.20941265216205
N           -0.14190609310172        3.65979892998584       -2.22293355751408
O           -0.32284067498444        0.82634441981276        2.68294278312503
H            0.56485431664314        1.08427018094422        2.32026300497299
H           -0.32769879375212        1.18761333536622        3.56951317948296
O            2.95157857018929       -3.03510319184227       -3.04970739763943
H            2.91772013583008       -2.11611372497394       -3.41506087313485
H            3.50081548728651       -3.52518822038474       -3.66180973620463
O            4.29965271938821        0.08041278838547        2.39963303518673
H            4.79056572583678        0.71399290655291        2.92288550198317
H            3.48350589095338        0.56870414625703        2.12571055704200
O            0.90999432014266        6.94346384828492       -1.04410712514798
H            1.26094552389425        7.83387805983843       -1.01262954243231
H            1.41491828799480        6.44439700624237       -0.35756675196782
O           -0.09682259899871       -0.70792630972379       -4.07258187970692
H           -0.23469781835909       -1.60173009249160       -4.39237591282788
H           -0.38769148051452       -0.68729871116847       -3.15555218130196
O            2.73153021010297       -0.57519182339709       -4.02584591265300
H            1.78188399670186       -0.47576601083465       -4.17843813331916
H            2.99053818678660        0.23435733812044       -3.52444570658701
O            2.27319596582989        5.64299590155886        0.88320718532055
H            2.14873828126296        4.66775651487586        0.73278761007600
H            1.97055961489473        5.78419740825574        1.78114992337349
O            3.25182136800563        1.66955783816627       -2.67889417915169
H            4.16755877071560        1.81129180575669       -2.43867217075589
H            2.76951191440513        1.53166717218818       -1.79549158799769
C            1.95816060433390        1.92695556062368        0.58031890335689
O            2.06354263514888        1.37250076926436        1.71926785104808
O            1.69836990867456        3.15349825181092        0.44123995523665
O            2.05804547981729        1.18758876935226       -0.47801881727438
