101
 energy: -141.119773172531 gnorm: 0.000201832485 xtb: 6.5.0 (unknown)
C           -4.84657719323442       -4.30254361486437       -0.80144690686229
C           -5.03732237307140       -2.98478018875296       -1.54480979427418
H           -5.17511557280578       -5.14213446902321       -1.41042617582929
H           -3.80000005139612       -4.44391505384716       -0.53844927105249
H           -5.42238649356068       -4.30345650104446        0.12099403358313
C           -4.44281523479391       -1.80939543870911       -0.75624553070651
H           -4.57109232925901       -3.04544538505882       -2.53006077790830
H           -6.10474019969824       -2.81297875479571       -1.69825406286337
C           -4.84313813154311       -0.46153217392167       -1.37749132044231
H           -4.85905983851972       -1.84673267164936        0.25647517246812
H           -4.36424933460007       -0.34925288192463       -2.35114253316134
H           -5.92431354708641       -0.47081475936590       -1.54002593947879
C           -4.50193328640012        0.74134493114009       -0.48171144393064
C           -5.32196816080487        1.97206678449282       -0.90460992431890
H           -4.79047111611940        0.48859432838412        0.54448977028701
H           -5.04498050285850        2.26384205317425       -1.91970102172883
H           -6.38198820111384        1.70670195437076       -0.91342176282733
C           -5.11153050057530        3.15056347221593        0.03855818505977
H           -5.71311092429135        4.00071400179557       -0.27497472981407
H           -5.40147194272839        2.88178125043116        1.05187095245236
H           -4.06688699933670        3.45241099659792        0.05059254448685
C           -3.03266173103767        1.08495593193143       -0.48175104501482
C           -2.30993036203750        1.10125151534188        0.70407140800930
C           -2.37157877375860        1.43214678290738       -1.65400756076643
C           -0.97138493331854        1.44353352647991        0.72331942508012
H           -2.77918208566465        0.81471754728615        1.63277405910411
C           -1.03620902560838        1.78713737943368       -1.63710742298159
H           -2.89953198761554        1.42683710703447       -2.59702581437854
C           -0.31712659322151        1.80504105435621       -0.44627970844729
H           -0.43679018319044        1.40422771200000        1.65604503351761
H           -0.54602273384216        2.04244131429448       -2.56778508024879
C           -2.94382389343641       -1.91532496392036       -0.65169205616324
C           -2.32238509748174       -1.87461918135656        0.58933784452448
C           -2.13977237267726       -1.98168636427891       -1.78472465987840
C           -0.94646661636448       -1.83206592726990        0.69986016911888
H           -2.91394222339250       -1.81370546186451        1.48935362489188
C           -0.75696246710860       -1.98849762611663       -1.67823054392631
H           -2.58679038568197       -2.00015385902805       -2.76856587831167
C           -0.14108099378523       -1.89649243932577       -0.43210704782845
H           -0.51122421054307       -1.66947106894994        1.67145335713406
H           -0.15599075630346       -2.01743891148319       -2.57573191669767
C            1.34236589064112       -1.72094753853826       -0.34464414312510
H            1.75206621105405       -1.54656702508524       -1.34050518921501
H            1.56879672482908       -0.84617275840591        0.29690511139983
C            1.14349178998257        2.16237852941570       -0.44074382327539
H            1.68889113134216        1.50244506805754        0.25852066521676
H            1.55318752568604        2.01704409684414       -1.44350034387747
C            3.51796254422195       -2.35194731518451        0.34788463136368
H            4.14692829414512       -3.09116250997654        0.83826520630323
H            3.90156819313334       -2.15083988392415       -0.64984580169083
H            3.50966432027231       -1.42031619531004        0.92605283095522
C            2.07500196756166       -4.02360121606173       -0.61630089888082
H            1.04236993715025       -4.34872964479086       -0.72916080119382
H            2.48997843074671       -3.77213100228503       -1.59058496177724
H            2.65691456324934       -4.83173148492823       -0.17538582513062
C            1.65792342376266       -3.17848349389216        1.60056333603406
H            1.54212974644065       -2.24665192341200        2.19549339803092
H            0.69510485292280       -3.67966702874866        1.54378662299280
H            2.37392481901929       -3.83646846021834        2.08808939131232
C            2.86886958512678        3.82329178704301       -0.23578693765524
H            3.09897978757130        4.85960156885772        0.00463060488587
H            3.45576382692536        3.16554396043256        0.42738168335726
H            3.15141467648616        3.62984692726110       -1.26902496158856
C            0.65519337805080        4.50404893679410       -0.87350212516776
H            0.91290871233240        4.37620777493707       -1.92433046354555
H           -0.40824539192519        4.31209540384859       -0.74123353009957
H            0.86712656387432        5.52973074170773       -0.57625745392543
C            1.09954802325924        3.80060702529510        1.37455074153364
H            0.02029290291081        3.83286215679528        1.51474339326438
H            1.50202694269033        2.98546665477723        1.99886537502260
H            1.52380606873363        4.74591534242002        1.70392178537140
N            2.13207290264080       -2.83984340082827        0.25128189945378
N            1.43207678501648        3.57454773794981       -0.04205299316006
O           -0.40325046185506        2.30252933354172        4.31093573371416
H           -0.05182256464221        2.65459293834793        5.12794647828437
H            0.41676820691104        1.89722366805299        3.83206609871447
O            0.43414625796294       -5.29849107072586       -3.76130854571342
H            1.19817378741752       -5.82572523074076       -3.52228169954582
H           -0.12018499885053       -5.23509638332305       -2.95984889512010
O           -1.08118277567470       -4.99698908564226       -1.50402766593179
H           -1.29255521438366       -4.04840280257561       -1.48792848367733
H           -1.91500004852134       -5.47234464121794       -1.49624511310385
O            3.26448460680304       -2.38551360745842       -3.06847606199754
H            3.89145481187141       -1.85467414145952       -3.56067596859631
H            2.47033979496198       -2.46534841458557       -3.63156526325948
O            4.30054234317638        2.03489319137800        1.62933919589222
H            3.61324902926086        1.29666976804157        1.54080803424515
H            4.21128121360196        2.29280431826978        2.54928821163106
O           -1.78242168748654        3.82136595253191        2.56465365169153
H           -1.26841119644220        3.31695657822755        3.23798421452825
H           -2.60032476447899        3.33118963809916        2.47032691778094
O            1.02627140679589       -2.79043737996280       -4.58801082621984
H            0.76551637354120       -3.69424996698160       -4.31045124290338
H            1.00909040367163       -2.79135942988437       -5.54586604748629
O           -1.51293397197275       -0.22660099400523        3.67357816030845
H           -1.40598640231553        0.65476184197489        4.05415307657706
H           -0.58736252973438       -0.46831593868538        3.45149054056655
C            1.71513781653093        0.34224279993358        2.50155301935473
O            1.65129134640238        1.48089693534030        3.06912687731498
O            2.45854066443054        0.24082598507036        1.43736020196090
O            1.06526970360210       -0.65981992503865        2.89538375511637
