101
 energy: -141.139139555977 gnorm: 0.000413343778 xtb: 6.5.0 (unknown)
C           -3.84300977772716       -4.06237921791503        1.64473238125936
C           -4.16682374617820       -2.58432010722170        1.83081644024020
H           -4.62777877568616       -4.55584416000334        1.07582579349708
H           -2.89903114089069       -4.19010567750980        1.11921675751003
H           -3.75989450061539       -4.55755700519717        2.60990087795761
C           -3.04741514051829       -1.83993479156535        2.57634874020583
H           -4.32473915487544       -2.11624298647099        0.85743879964979
H           -5.09633500295693       -2.49174477400090        2.39655185226264
C           -3.49890007296393       -0.41669328978928        2.93877714488906
H           -2.84458827911999       -2.38095512071154        3.50818786293821
H           -3.68331786077536        0.15604320771635        2.03108689786528
H           -4.44926375435887       -0.49540471960675        3.47342666794524
C           -2.50861500196288        0.33416644653486        3.84120525820987
C           -3.17909431089991        1.58335755360057        4.44214221401125
H           -2.24187865148661       -0.33199122110886        4.67064142554920
H           -3.30873086619047        2.33046507443237        3.65694087798287
H           -4.17137882080860        1.31718452240967        4.81323002979229
C           -2.36484488082306        2.17013424017076        5.58986201991669
H           -2.81684859393364        3.09259246398158        5.94792718484879
H           -2.32225810425465        1.46903461584260        6.42108213255491
H           -1.34472818531487        2.37876525034168        5.27428426859205
C           -1.23657289550417        0.75255748229348        3.14390751128003
C           -0.00331381783204        0.46349603204689        3.71341286808013
C           -1.24995323663912        1.48605774258713        1.96330794885955
C            1.17109927277315        0.91048519531410        3.13812024062266
H            0.04129061611773       -0.11263579888963        4.62721175017099
C           -0.07551268324203        1.89698211632499        1.36295994167299
H           -2.18365874152459        1.74044739093738        1.48758379103205
C            1.15422920084559        1.64075963935725        1.95587887326619
H            2.11364725825951        0.67816940021688        3.61601275126690
H           -0.12457772541092        2.41182115992570        0.41970704457140
C           -1.79106440302662       -1.82430310648080        1.74823772793214
C           -0.65494961667815       -2.51192020566742        2.15251427374239
C           -1.73312969512383       -1.09714861247109        0.56393839824904
C            0.51582605265603       -2.44865388871669        1.41738141266741
H           -0.67866036506402       -3.09171760380376        3.06427086227601
C           -0.55440902175225       -0.99292232906962       -0.14530061444899
H           -2.59440043247628       -0.55851702932289        0.20212315335555
C            0.58741162828524       -1.67003833877501        0.26955089867437
H            1.38943948475075       -2.98371021264595        1.76376151620385
H           -0.51862587465331       -0.34247074992303       -1.00166059441254
C            1.88492121783265       -1.45781134554006       -0.44293302316673
H            2.00303972296656       -0.37663927211969       -0.67822412700043
H            2.71323906468293       -1.77118906840506        0.19661436280801
C            2.44823582504576        2.09281789103657        1.33641586281666
H            3.26835838104963        1.54572679220590        1.80900763594636
H            2.46550606352394        1.85608111614503        0.25652859367561
C            3.31887977666173       -1.66549063885801       -2.32188763710137
H            3.47068282871834       -2.06750560426372       -3.32100394774798
H            3.26171415242986       -0.57093075362001       -2.36250384440090
H            4.15553048602562       -1.95123341792699       -1.68679505664676
C            0.96933897268581       -1.82392566699518       -2.69299377028808
H            0.04262206423419       -2.28344559215464       -2.36271237850708
H            0.84132591056747       -0.72600807431008       -2.74257195095225
H            1.21666056386628       -2.19980417274034       -3.68323374126865
C            2.08659847617859       -3.61204299441042       -1.55740469745043
H            2.87855210644503       -3.88253446760683       -0.86068140549746
H            1.12648342896066       -3.94255633568300       -1.16120760364133
H            2.26471874725967       -4.11124938418604       -2.50851841918753
C            2.64754406870827        3.93272727651011        2.91012538131263
H            2.95154418042325        4.97094436103736        3.02952230455863
H            1.61555802950419        3.83689546437494        3.25138916850501
H            3.29365565819246        3.30058382942679        3.51660099017241
C            4.10881225566321        3.79422030602413        1.00047924588916
H            4.81896863368322        3.13614451715835        1.49746578039779
H            4.14537658865543        3.62983994457345       -0.08645303858643
H            4.38978190407229        4.82751378640230        1.19526151834381
C            1.81390382426058        4.37260821667017        0.70527174292620
H            1.73787330329102        3.97734921074584       -0.31417642379881
H            0.83147362247441        4.37130776213457        1.16618044959012
H            2.18095166157855        5.39484716870542        0.65782815042455
N            2.05324295947692       -2.15695970448286       -1.75436190878421
N            2.74445147830739        3.54897080204788        1.49402294111642
O           -2.57484288927270        3.19544597663110       -3.96784217087320
H           -1.71768805065808        2.94896754559256       -4.38052195910826
H           -2.34534997401399        3.88008597406629       -3.32997694458607
O           -2.04769943883000        1.42960049403263       -1.91205742863386
H           -2.46014958936141        1.80985985477714       -2.70817625396058
H           -1.11632102514359        1.25424414072802       -2.18155704457283
O           -1.43115523170849        5.00675393787735        0.89931865830826
H           -1.27379112191793        4.56293783079801        0.01961573541525
H           -1.74519152867512        5.88485313127280        0.68293197236956
O           -0.02756045618981        2.59548782999844       -4.64336204033062
H            0.14889718265645        1.94652596068880       -3.91337431709076
H            0.47668783331667        3.36970363815750       -4.37790248762058
O           -1.21759815794827       -3.88978346584781       -1.20391300092158
H           -2.00541590392595       -4.28022705222215       -1.58734913798642
H           -1.50783510930231       -3.14102533408285       -0.66931279507845
O           -0.42875043914206        4.37543744678598        3.35905885686609
H           -1.16156616442201        3.99866277856503        3.84765383752407
H           -0.80533255756013        4.62603361734587        2.49342488351449
O            3.96555459802833        3.63822884127091       -1.98302480391940
H            4.32935326322538        2.82471514560413       -2.33705617927716
H            2.98175718454332        3.47917325882117       -2.01537996092419
O           -1.04143774238540        3.91104821489074       -1.44969909218276
H           -1.53015247793499        3.06021276161662       -1.46466385488625
H           -0.11744452426270        3.65066337573035       -1.70676435802359
C            1.46906884030333        1.72991307140035       -2.00376963289735
O            0.53750433577761        1.05311845338034       -2.56265998986824
O            2.46030531884837        1.13655123987381       -1.47202381522560
O            1.39894249846672        3.00790475759097       -1.96760962978153
