101
 energy: -141.097608771967 gnorm: 0.000324509232 xtb: 6.5.0 (unknown)
C           -3.02606938090230       -4.39518039662980       -0.16759741758092
C           -3.65057153784133       -3.21786863709507       -0.90650769209851
H           -3.33624130389471       -5.33591181325168       -0.61679850037590
H           -1.94076765274892       -4.33485187211261       -0.20462846553431
H           -3.33259228810873       -4.39558354390578        0.87584214075319
C           -3.24487644636133       -1.87181537722916       -0.28488664053112
H           -3.34318615869677       -3.25083327687280       -1.95358898058256
H           -4.73891917178977       -3.31082200592934       -0.87516109729723
C           -3.99529081393271       -0.71285597312779       -0.96600815317245
H           -3.54967155043235       -1.89420121535858        0.76729185386882
H           -3.56726277046396       -0.52239872202977       -1.95095449580129
H           -5.03418786065764       -1.02339403423001       -1.10752619519488
C           -3.99991794376386        0.59482919886680       -0.15210983145970
C           -5.13841393503354        1.51182211563837       -0.62441431455228
H           -4.19215863544687        0.34252308248412        0.89675059556171
H           -5.00258440219196        1.75633048804608       -1.67908829659714
H           -6.08585809310160        0.97585764212606       -0.52863549426138
C           -5.20666497560153        2.79762433760490        0.19024562405469
H           -6.03160893381800        3.41987170005596       -0.14880336878564
H           -5.35588130646957        2.57381165373707        1.24432166723660
H           -4.28290395047788        3.36252693782310        0.08921628189152
C           -2.66505028287159        1.28961530697902       -0.23509879940960
C           -1.84183703882066        1.38184701980907        0.88008628139219
C           -2.20850163228697        1.82681093605851       -1.43238049727020
C           -0.55847208493948        1.88536493635734        0.78404077466231
H           -2.19634562881911        1.01942000319446        1.83355451968118
C           -0.94599599283327        2.38330748673714       -1.51948254644192
H           -2.83377678792582        1.81058380552804       -2.31195124428621
C           -0.08422139009801        2.37468203743886       -0.42800498209079
H            0.09085818295409        1.86674887641880        1.64529500973226
H           -0.61300824269695        2.81009724857139       -2.45392679022177
C           -1.74897207004876       -1.68931020872040       -0.33534250702818
C           -1.02555485607351       -1.45804146505387        0.82834420597831
C           -1.04901802659405       -1.73983597783104       -1.53388093913558
C            0.33394686951868       -1.21723002199015        0.79709021295754
H           -1.54110707953325       -1.43541584971106        1.77692516963732
C            0.32241821590584       -1.56339265031528       -1.56370897343964
H           -1.56793395047397       -1.92990229945679       -2.46104925779749
C            1.03729801733506       -1.27975011815415       -0.40329783390884
H            0.84435918259247       -0.94416953130522        1.70626609790939
H            0.84314142460482       -1.63164067261478       -2.50927598027832
C            2.48400847247405       -0.91896338489324       -0.48600437691941
H            2.75644930978841       -0.73864462626460       -1.52871610942327
H            2.67860421110664        0.03147938269959        0.09659865697491
C            1.35220195445557        2.75860020025210       -0.60048106489762
H            1.99458283948272        2.07776895962649        0.00080054955010
H            1.62828195977446        2.67023035829154       -1.65295741297811
C            4.77996763739226       -1.20956800490607        0.05736332649096
H            5.51174802394366       -1.77725829840674        0.62476406331052
H            5.12383013721309       -1.05900340956095       -0.96388175382096
H            4.65393848850937       -0.23334641033145        0.54084790376713
C            3.51621937757820       -3.10103506966408       -0.76991845903986
H            2.53216011589760       -3.56890544556809       -0.78476223953586
H            3.80085585418762       -2.84906460185831       -1.79100900544366
H            4.24144499232332       -3.80515479563939       -0.36477430550442
C            3.15275346856961       -2.25924620896720        1.44830149188998
H            3.08903733948384       -1.32341227348934        2.05025044289908
H            2.21903034494600       -2.81350463717077        1.48716834602157
H            3.95604668738357       -2.86258227161656        1.86336565494681
C            3.20736387768424        4.19134475787820       -0.22286351503092
H            3.57338850625495        5.09225371409765        0.26123815854805
H            3.60608319567482        3.32529820252042        0.31877594394783
H            3.53946772639582        4.15053753321788       -1.25783133185776
C            1.14305762325064        5.12730785328609       -1.06199575794989
H            1.42888662146274        4.91499009817086       -2.09170852457545
H            0.05721067388000        5.08698081751426       -0.98599170299284
H            1.48484135111818        6.12432303407234       -0.78887277200501
C            1.31296640352568        4.37744541283109        1.22015342485889
H            0.22881644900042        4.34664237945180        1.29430819181456
H            1.76932682070874        3.60422441602478        1.87389264826005
H            1.67823776986089        5.34680186308312        1.54961294538155
N            3.47358397589026       -1.89160342695043        0.06237728893340
N            1.73731878987773        4.12977139602734       -0.16388172629718
O            4.15842524998059        4.65708652987736        2.66054610219842
H            4.65873445311011        4.65818521747056        3.47671541311381
H            3.67311017887641        3.78721339890822        2.68069727713160
O           -2.85035429363535       -0.32636202134746       -7.14605797283127
H           -3.34765052135333       -0.38527928842043       -7.96245359165506
H           -3.37549124403517       -0.76722051348530       -6.46135698521114
O            1.53308190998922        2.77661175939603       -3.91940660081214
H            0.97188308560455        1.98583399009756       -4.00780038415107
H            2.08127073714307        2.80440111763065       -4.70441694151201
O            5.59850710000480       -0.96567069148027        3.01352760500887
H            4.73703945950572       -0.46961486106165        2.94326269210075
H            5.99836005592627       -0.61678452431207        3.81029960454286
O           -0.20226312135457        0.57268713314958       -3.95575054695916
H           -1.07564100636958        0.96143902942512       -4.20858592320189
H           -0.24534922926716        0.43543760241607       -3.00304258236504
O           -1.02685852219000       -1.70376574403120       -5.21362928819571
H           -1.13269573362041       -1.41763630331248       -6.12704087659028
H           -0.57929813833358       -0.96039828835565       -4.75959818748479
O           -2.65902459665719        1.24647212925460       -4.75676587557418
H           -2.59389459469478        1.19912749719417       -5.71831324521862
H           -3.15571444598788        0.45045070333503       -4.50727056177570
O           -3.59189147827966       -1.36815138320772       -4.61083422480675
H           -4.01257320791023       -2.02810333489324       -4.05855563718932
H           -2.64567752335689       -1.63681753225715       -4.72514233875476
C            3.12369015735317        1.33501171215184        2.18096384686988
O            2.77402499028100        2.40925434227300        2.74911573821864
O            3.31606277679146        1.33928499470055        0.89278641561528
O            3.26205487862937        0.24659408980459        2.81674892577471
