101
 energy: -141.107925020954 gnorm: 0.000271393961 xtb: 6.5.0 (unknown)
C           -3.80496049600339       -4.37273910132092        0.67401405631776
C           -4.38932650228566       -3.01087334901446        0.31851859168586
H           -4.47854507917861       -5.17085025905458        0.36905423052387
H           -2.84788614615276       -4.51817775418501        0.17783232738933
H           -3.64626262567723       -4.44722502595529        1.74742885493168
C           -3.48014882718937       -1.86351082952629        0.77390771785059
H           -4.55766728813392       -2.95374304980452       -0.75860841085688
H           -5.36118011919824       -2.89908822107111        0.80512005656948
C           -4.10812255432418       -0.50150076145107        0.43048571507158
H           -3.38425768709486       -1.92284876739118        1.86302479737405
H           -4.13891504964235       -0.39084117341915       -0.65447867484621
H           -5.14096462508038       -0.51051223364371        0.78873683443800
C           -3.37547481945440        0.68972961903525        1.07496143226380
C           -4.37919671826893        1.80818279457520        1.41292709591759
H           -2.92958686570325        0.35366972120494        2.01540583659721
H           -4.83098139283743        2.18699813386191        0.49309689077168
H           -5.17829320507335        1.38638106871602        2.02773001454915
C           -3.73006174941413        2.95979493044579        2.17021596629820
H           -4.47752467773690        3.69874187511010        2.45155684454296
H           -3.24875653314123        2.59222929684339        3.07304263895108
H           -2.97541904726891        3.44649876138132        1.55745877122494
C           -2.27514386676191        1.27610204347636        0.22230619592453
C           -1.05031384842962        1.49379548916515        0.71661797219389
C           -2.58685107829152        1.72725230173173       -1.11555674588883
C            0.04008254579852        2.20493216298834       -0.02865774276024
H           -0.79263343967430        1.16406336430363        1.71081630514011
C           -1.70113860414724        2.41541990089079       -1.85162701207635
H           -3.56732493756670        1.51191416560326       -1.51578802217226
C           -0.38802385829439        2.76634031642259       -1.36643138689121
H            0.42101345288929        3.01564998704991        0.61512131242965
H           -1.95445628336241        2.75277893403105       -2.84789806103045
C           -2.09868830622369       -1.92777614473955        0.18352176653694
C           -1.00819520307894       -1.63920307080485        0.99333842066361
C           -1.87162819530021       -2.16875035719493       -1.16479643746236
C            0.25836728920426       -1.52071654818566        0.46022316879763
H           -1.16271569056252       -1.45141137910860        2.04407947462677
C           -0.59354920170103       -2.10398049275304       -1.68955920581490
H           -2.69690006020996       -2.39081548959961       -1.82520720749484
C            0.48821288056383       -1.75424918952956       -0.89166120681256
H            1.05752905901063       -1.19473973351824        1.10407564405235
H           -0.44130756978884       -2.28360495661241       -2.74538811265292
C            1.82439330267065       -1.47577231170205       -1.51805532958131
H            1.72514106953950       -1.46376360764139       -2.60370575440011
H            2.14731996621597       -0.48679571458387       -1.17584093308323
C            0.44538322808141        3.53580008402881       -2.07297182491835
H            1.42388146717351        3.80684745196207       -1.71138315513739
H            0.16272499742473        3.91046964173528       -3.04363245971049
C            4.17074735981203       -1.85297535362972       -1.75843785070920
H            5.02411495383139       -2.46431677469852       -1.47201176712928
H            4.08685709562244       -1.80111595408502       -2.84173027209903
H            4.30962509358860       -0.85394368045701       -1.34986057512292
C            2.66051688296288       -3.72549042166905       -1.81643391057292
H            1.71626327564791       -4.11649246048922       -1.44034438967251
H            2.59244668343278       -3.60151984274323       -2.89628693724016
H            3.46172332218277       -4.42319567361737       -1.58001448634279
C            3.11891009253271       -2.58541259880738        0.24964028396326
H            3.22123034557271       -1.59743286182040        0.69450786050222
H            2.27036356063176       -3.10637831760441        0.68519644945389
H            4.03436561278574       -3.14221874977844        0.44162047848572
C            4.39953274932190        3.50511949247532       -1.33669550702492
H            5.42139081909720        3.72919194194232       -0.99143740249780
H            4.05416712688587        2.60369530823724       -0.83586077089755
H            4.42790510140651        3.31566189237202       -2.40954769342446
C            3.85480803774623        5.79130621963250       -1.77549828129508
H            3.89160598413240        5.58461760225695       -2.84482164253520
H            3.10686782869066        6.56305593694703       -1.59588439379621
H            4.83854065046752        6.17618532958168       -1.45912942736624
C            3.33936940218506        4.83058153825709        0.35076381579863
H            2.58404610844849        5.59960632767411        0.51155819004896
H            3.01527683414446        3.91736065548530        0.84492413152469
H            4.28350862773451        5.16253029610337        0.81187160417176
N            2.93443454843231       -2.42346744180266       -1.19839014129515
N            3.47246387072858        4.58643378101119       -1.07126385633046
O            2.77182106811209       -2.20200609857307       -4.67890131005188
H            3.29105904380172       -2.65157592531444       -5.37154507428152
H            2.55317216551510       -1.34239283015751       -5.04378996690231
O            4.13528922424782       -3.45263187356086       -6.69896811116146
H            3.50174972862064       -4.01431534675009       -7.17699550865219
H            4.91575820698641       -3.98786061193901       -6.54728530002371
O            2.20478036858825       -4.97088150368683       -7.99722849537662
H            2.04098003560157       -4.78915993433890       -8.92520532064478
H            1.36018910755238       -4.93025331880213       -7.54239126930314
O            5.38143098894405       -0.20031286489152        1.48483249721389
H            5.05609617091823       -0.02299114224545        2.38129462746936
H            4.66970643938187        0.16325001076005        0.92003085644814
O            0.86911121883127        1.09119981862593        3.94349419985127
H            1.68354911360156        0.69530237042829        4.27100520725315
H            1.12876421469039        1.50262068832369        3.09936287923868
O            3.83316602615034        0.92036321987976        3.53103941347928
H            4.25450061338742        1.69235030476825        3.91155176802929
H            3.27436525248405        1.27092092593800        2.79606553297346
O            6.16454178811701       -2.63092633409159        0.57717322317998
H            5.88475068524051       -1.74517367913518        0.90255333425791
H            7.05401510225311       -2.74764051935167        0.91192403709476
O           -1.50339616991374       -0.28863176203987        3.96495890539965
H           -1.90050551541723       -0.02021397579270        4.79450904024324
H           -0.64800731644748        0.18183863758751        3.92470331934422
C            2.19666527020046        1.28249605875029        0.58361789301148
O            2.14235212750527        1.88834971130716        1.66175855122187
O            1.14564946786119        1.32826312203443       -0.28959080175328
O            3.13618841507056        0.58023364366317        0.17594213467484
