101
 energy: -141.137931339951 gnorm: 0.000586116448 xtb: 6.5.0 (unknown)
C           -3.56624103713704       -3.67398846849276        1.53185843755001
C           -3.77958841057915       -2.92698154853843        0.21933347061373
H           -3.86286159570324       -4.71661381454949        1.43448643887432
H           -2.52478421854326       -3.62840532302289        1.84182847790232
H           -4.16404634192989       -3.22313302625143        2.32026624587398
C           -3.23692195369609       -1.48818297330025        0.29437840985305
H           -3.29294094748138       -3.46090625319429       -0.60081440673788
H           -4.84949690391227       -2.90014897945798        0.00178965076424
C           -3.80996505575879       -0.62161873476364       -0.83874913568386
H           -3.57595585835428       -1.05986978890506        1.24315909433816
H           -3.30731918091885       -0.84662103618767       -1.78055299349317
H           -4.86696208818410       -0.87261476553105       -0.96080867369146
C           -3.71332748425456        0.88760898139618       -0.55456921909904
C           -4.57697935694770        1.67873152513680       -1.54586791240086
H           -4.11265166903974        1.06564642149882        0.44989645530227
H           -4.24308755859115        1.48953644928912       -2.56768229846704
H           -5.60877904796629        1.32748563386737       -1.46963167018203
C           -4.53542521941547        3.17575743746318       -1.26436444553535
H           -5.17406497070906        3.71376453355840       -1.96135052165123
H           -4.87932794665836        3.38132080671946       -0.25320744286996
H           -3.52018385509765        3.55388833703812       -1.36176075100176
C           -2.27351735260794        1.32889647724294       -0.56472784542021
C           -1.61838217614176        1.57193488672777        0.63570722433395
C           -1.54709220724113        1.43217845485185       -1.74432044640995
C           -0.26635036600019        1.84787148006194        0.66372661197575
H           -2.15191579187915        1.49304734621678        1.57026458261149
C           -0.20454037160100        1.76243468728097       -1.72285618547857
H           -2.02365746866906        1.24223552501184       -2.69489295076912
C            0.45925185018625        1.95881736353372       -0.51769168650666
H            0.22858566717368        1.93483508957383        1.61718924465037
H            0.34053812827510        1.82981026876717       -2.65535848299512
C           -1.72796003410855       -1.51787526220225        0.31372800764771
C           -1.03546908748787       -1.17367778425359        1.46905250209762
C           -0.99009772402381       -1.91243630305917       -0.79765080160118
C            0.34590972096640       -1.19269696937276        1.50369600599315
H           -1.57792244379843       -0.84646168729827        2.34181091331693
C            0.39367949994790       -1.95552930402783       -0.75566879072274
H           -1.49346277172031       -2.18364057727286       -1.71527757131056
C            1.08349317054224       -1.60121759791497        0.39777088252843
H            0.84874932991767       -0.85327182623916        2.39395010193599
H            0.94144912609843       -2.25766650543523       -1.63711037225864
C            2.58588099722545       -1.61148952741532        0.42879019931627
H            2.98520749642417       -1.60008425096333       -0.58729314988887
H            2.94950525505143       -0.70393750773197        0.93645876557409
C            1.94071045551284        2.18318801670158       -0.48460212816580
H            2.38981598195703        1.56991463182877        0.31938953675975
H            2.38863775045828        1.88463533218700       -1.43455566297149
C            4.64312972994959       -2.63563078374812        1.10735507367082
H            5.11291271704737       -3.49651138105924        1.57691647716467
H            4.99190763006618       -2.52349346783238        0.08296122258909
H            4.92073512672044       -1.74938103266165        1.66994091613689
C            2.82095934693209       -4.03302871127509        0.44775340827010
H            1.74292201119166       -4.18376705701399        0.46595959523632
H            3.16333473882893       -3.99778209188654       -0.58481772455588
H            3.29851159326102       -4.87188807844487        0.95076409823624
C            2.73801440354596       -2.84304418442230        2.53406187310844
H            2.85241537358534       -1.85472584419818        2.99360574089340
H            1.69740495294454       -3.15268644186791        2.58431213437786
H            3.35997290111518       -3.54793645852284        3.08214740911284
C            3.82851577991348        3.55143908472054        0.04516637559590
H            4.18836237191514        4.53350176610809        0.33969114192758
H            4.02103262079433        2.84243822977997        0.85607285158027
H            4.35690865367368        3.21141394339453       -0.84272547781221
C            2.06871576593538        4.45356006489768       -1.34430087347629
H            2.61518046700387        4.12298595014841       -2.22669218215290
H            1.00046239635437        4.41235861520022       -1.55447753706398
H            2.34983268342017        5.48122507850238       -1.11897448832581
C            1.71759620648414        4.10504191209099        1.00510985205636
H            0.65684307174317        4.25580519233211        0.82330101124779
H            1.85222382943491        3.38137558819868        1.82226457746286
H            2.17845736496615        5.04199734716074        1.30749216073141
N            3.18136575473781       -2.78537699346736        1.13222379261538
N            2.37783132860064        3.58591415045316       -0.20162203690975
O            0.51250267930313        1.05093961470231        4.80051458184110
H            1.14392471504622        1.51163265404372        4.17740287322275
H            1.00131938219899        0.26223145526809        5.04784032971186
O            5.52511050890120       -0.79961597973895        3.56949733237253
H            5.91995260792069       -0.30709730306979        4.28912154572212
H            4.54910335921576       -0.46642679178013        3.54548259397538
O            5.93140523360321        0.45340263771814        0.94530366385231
H            6.25512620255714       -0.00354494569516        1.73027632429526
H            5.00048136406030        0.70611272938715        1.20301960544669
O           -2.00808194061530        0.76186934348113        3.87610283913205
H           -1.06195722618655        0.84612547843569        4.13506246086049
H           -2.48733198786171        1.19752049797386        4.58199324605167
O           -0.29111551408538       -4.71506105304179        0.69624815672285
H           -0.72925165010870       -3.92636120303571        0.35603361291242
H           -0.97936173862718       -5.33322179199067        0.94902045265782
O            5.44894671332833       -3.49390394235820        3.99207174420859
H            5.47705270980352       -2.52327457005077        3.83972612063694
H            5.83074980481469       -3.63297735040298        4.85895961709101
O            3.68764327151094        4.27584918363003        3.42945688012720
H            3.82441669163172        4.37114725722559        4.37226890812639
H            3.19803929800364        3.42759929911038        3.33489815869075
O            5.35302158523852       -0.86567099751976       -1.33240699194226
H            6.07030840600817       -0.63664661456261       -1.92390781585284
H            5.53998404378877       -0.36661621516834       -0.50138001799381
C            2.95823394395668        1.01844011101683        2.77733362317190
O            3.12541658465799        0.04370800958304        3.57299089398137
O            2.23621079906427        2.02081991935613        3.09307286950221
O            3.49106604111355        0.99059240722597        1.60893428235920
