101
 energy: -141.121206622088 gnorm: 0.000130890163 xtb: 6.5.0 (unknown)
C           -3.80295595561783       -4.47523448470847        2.27800402094692
C           -4.40705749356889       -3.28728575967095        1.53786734464537
H           -4.27136940922582       -5.40345444974469        1.95757866389667
H           -2.73287529725631       -4.54480050095423        2.09738731013642
H           -3.95542990840880       -4.36803927927306        3.34960549458058
C           -3.74091661608181       -1.95959799536424        1.93809741922291
H           -4.30706924799432       -3.43270347347753        0.45989311632406
H           -5.47445356400102       -3.23500044882156        1.76430328287741
C           -4.54791968279544       -0.77035500502896        1.39733669445365
H           -3.74378332850518       -1.89368756672003        3.03079485098359
H           -4.49886400196820       -0.74605213020209        0.30915793699572
H           -5.59563446987317       -0.92419339379668        1.67019171777831
C           -4.10408048287181        0.58249869342816        1.97441020561293
C           -5.13789808668584        1.66774432756463        1.63129746726044
H           -4.05982568906405        0.48284937081114        3.06406734178400
H           -5.17596298271248        1.80213942215744        0.54883870249642
H           -6.12579852221721        1.33580545970347        1.95991762021317
C           -4.81227417379379        3.00044281081973        2.29411880835972
H           -5.57380481197750        3.73978767555962        2.05688308144400
H           -4.76664349373777        2.88774517439267        3.37537900800260
H           -3.85067213476541        3.37281771645224        1.94860701070248
C           -2.74134873108521        0.99939817747664        1.48607739798242
C           -1.73656288277089        1.31803907610931        2.38916793997810
C           -2.45051687372328        1.08681864248678        0.13019501881440
C           -0.48034167417097        1.69452336390921        1.95073764572639
H           -1.93572361308072        1.25976944389924        3.44946880410149
C           -1.18419507337039        1.41206405378666       -0.31374851181509
H           -3.21048494203899        0.86891483019869       -0.60389285503414
C           -0.17851457122625        1.73312717984624        0.59409405231554
H            0.28444513742601        1.93268265250899        2.67842773387683
H           -0.98830976697068        1.38833778030084       -1.37436896798324
C           -2.30837101693146       -1.95061882911278        1.47193683871013
C           -1.27171632146961       -2.04538305191181        2.39064939316840
C           -1.97943329862130       -1.86717693519189        0.12267418284007
C            0.04720207367171       -2.04439162280544        1.97642313062066
H           -1.50154197336035       -2.10895595763392        3.44402514824690
C           -0.66148444696679       -1.81341167278886       -0.29258464459440
H           -2.75621015930718       -1.80558378765502       -0.62405289844560
C            0.37437020369810       -1.91667756874560        0.63156962058429
H            0.83338249497170       -2.11801393464447        2.71508165183432
H           -0.45001115287504       -1.66514349914157       -1.33918965403653
C            1.80822878043635       -1.79150998377745        0.21685379439449
H            1.92879505206444       -0.95755978635094       -0.50304295878832
H            2.41809468249514       -1.56719857899109        1.09576597312076
C            1.22741185599314        2.01305627142920        0.14968066529647
H            1.89872916826246        1.94447431087560        1.00972055165426
H            1.55672955982133        1.25358239030013       -0.58216877294256
C            3.77200531755339       -2.56612948159919       -0.87384530375453
H            4.21806083849189       -3.33938657290766       -1.49487602947099
H            3.68227396025040       -1.63980215984588       -1.44944748546433
H            4.39932227058318       -2.37907919807841       -0.00439014772873
C            1.66497348508175       -3.37678804334597       -1.64514458358561
H            0.69846707540140       -3.77692246594753       -1.35620672389505
H            1.54121653692676       -2.50126187117063       -2.29862806436021
H            2.22676684909280       -4.13543855170010       -2.18492146648778
C            2.49306879649187       -4.11707582097211        0.47043416819032
H            3.03901257410146       -3.84475233090738        1.37249389523239
H            1.48521187065372       -4.43343831407934        0.73817605097223
H            3.00552480863524       -4.94247325207479       -0.02030943797811
C            2.83919924888087        3.30362454562688       -1.04971218162159
H            3.01278723237383        4.16741728147774       -1.68640927788810
H            3.57573752016681        3.26906259371805       -0.24965439463496
H            2.93931965498328        2.40076481574606       -1.66052475605910
C            0.53925334939505        3.58576159398113       -1.59743193164531
H            0.64792728067669        2.76895632477138       -2.31699552369190
H           -0.48317233096315        3.63818777607995       -1.23632498275836
H            0.79642794088734        4.51243760107735       -2.10446579110279
C            1.34667109848302        4.41270070818211        0.50116655133769
H            0.34423109927945        4.39440514064931        0.92771404066115
H            2.07328701930552        4.27914765823157        1.30192311938806
H            1.51664827676933        5.37814943570693        0.02739207687887
N            2.42210047271929       -2.97595174690122       -0.44977718488667
N            1.47565412885054        3.34018732335207       -0.49195344181753
O           -4.39098964607174       -0.87909966045912        5.19162632786898
H           -4.33895833505524       -0.89523563448103        6.14920497686180
H           -5.32140889309098       -0.89663761823072        4.95673163639717
O           -0.57646339876775        3.74393023102325       -5.02747048404986
H           -0.83645406161347        2.95083798536700       -4.51314186969942
H           -0.46243752617566        3.43078820754719       -5.92645136768700
O            4.14396795730531       -4.46697302658321       -3.31710246596658
H            3.85065526936834       -3.64384249542859       -3.77840592649467
H            4.44208234165974       -5.05090479737541       -4.01480640974572
O           -0.90228425509832       -1.34865748084124       -4.02915784874448
H            0.03783232716944       -1.14828110120274       -3.74553299079568
H           -0.81245015075852       -1.64603890997763       -4.93501214972530
O            3.37600298468758       -2.23270798159300       -4.58200671393033
H            2.64055191631316       -1.74588155882833       -4.10536708128552
H            4.04472546002004       -1.56467708496811       -4.73941400472816
O            2.15277971289378        3.83173761595785       -4.17480560689720
H            2.11869844151860        2.88563232127729       -3.94815264723696
H            1.27193905956124        4.00124357555100       -4.54250568552115
O           -0.70833797642785       -4.95065468365828        0.28304983941346
H           -1.28451046588969       -5.64998049977528       -0.03120360172104
H           -1.21599117226848       -4.13164043294814        0.25503368986995
O           -1.04929751800089        1.42008018983534       -3.68740826987572
H           -1.32227548817915        0.51265449890510       -3.89212137702498
H           -0.05792003529050        1.33003485680023       -3.60232862319397
C            1.90094662594788        0.20359822555984       -2.76066324835711
O            1.50633155929004        1.29492121449579       -3.27257598266953
O            1.55549394788909       -0.92247863176246       -3.27916513090225
O            2.60533864840645        0.21420603635043       -1.69924349856460
