101
 energy: -141.126119434989 gnorm: 0.000433685287 xtb: 6.5.0 (unknown)
C           -2.35530332131211       -4.02638800263417        2.19155230940295
C           -3.28736756240680       -3.23647007585198        1.28088133708746
H           -2.62760518507339       -5.07950739655103        2.19509042564767
H           -1.32546378923666       -3.93662896853797        1.85329429885189
H           -2.41195394062705       -3.65373358574445        3.21220589175211
C           -2.95127976231393       -1.73634318995146        1.26721402277230
H           -3.22271757564110       -3.63156854199590        0.26566264514936
H           -4.31748363466884       -3.36421035977181        1.62088942887867
C           -3.98107924582710       -0.97659785660600        0.41663736885250
H           -3.02167053649170       -1.36876635727122        2.29759950416936
H           -3.78819548595700       -1.16210377077039       -0.63986803734136
H           -4.97564161245520       -1.36613471046597        0.64292897580454
C           -4.01638688085349        0.53931003491906        0.67042319008530
C           -5.16455344608408        1.15537587149748       -0.14269654557506
H           -4.23419561290007        0.69984257545674        1.73275781088784
H           -4.98445597811590        0.99431722797012       -1.20679618959525
H           -6.08595099853926        0.63420131787216        0.12224404201584
C           -5.32954407527665        2.64817091795871        0.11565380189822
H           -6.20573959299661        3.02386189362416       -0.40998469627592
H           -5.45371305242561        2.84006043618110        1.17986273538426
H           -4.45429030404480        3.18939994397168       -0.23536991922161
C           -2.69137150035815        1.18414371967430        0.36009211980106
C           -1.97149719242071        1.83757753733470        1.35410180259743
C           -2.12707690991518        1.09276538484038       -0.90751112014841
C           -0.69853784817881        2.32522982828007        1.11292528690705
H           -2.39846125450840        1.93441630277905        2.34250978335224
C           -0.85539261323446        1.57093714312415       -1.15439369704361
H           -2.66933210054037        0.60659228350243       -1.70381016280858
C           -0.12009389330826        2.17616581966089       -0.14120185699813
H           -0.13411801632051        2.78676263959618        1.90876047992297
H           -0.40775102516892        1.43290933549624       -2.12588908397490
C           -1.53697679585000       -1.52338375266924        0.78725606129879
C           -0.58084953091060       -0.97973589628097        1.63554848319256
C           -1.14954161381053       -1.86420194513496       -0.50393898403263
C            0.71338301404899       -0.75801475806233        1.20507261537733
H           -0.85799370473529       -0.70781928987949        2.64394790193498
C            0.14221695367634       -1.64248621440827       -0.94246906393870
H           -1.86868196686315       -2.29304640213600       -1.18649352916186
C            1.09059057154001       -1.08984972082011       -0.09033870833949
H            1.43356498719212       -0.29954979039800        1.86589116031988
H            0.41566833438434       -1.86496334392963       -1.96284597015637
C            2.48536847539989       -0.80113618394256       -0.56763347663887
H            2.46532709403742       -0.56290156572331       -1.63012499809860
H            2.89276197602822        0.02719964161615        0.01362612290685
C            1.31059246056938        2.56121143507292       -0.38366884947993
H            1.87352847247967        2.45006060898957        0.54323537820462
H            1.71311242281387        1.89511889474907       -1.14971232578883
C            4.77598508548848       -1.49467917585182       -0.82055612287475
H            5.49683374631724       -2.29360001906341       -0.65804463955469
H            4.77071244126541       -1.23509166174041       -1.88310313358122
H            5.07402245526151       -0.62550250802729       -0.23721408955784
C            3.01081360897046       -3.06582341382773       -1.23363359711119
H            2.08572339101508       -3.48781318437052       -0.84603707067130
H            2.83290776674625       -2.69402003855738       -2.24892110430189
H            3.78040684195216       -3.83463022795350       -1.25162649277345
C            3.50309449922432       -2.31409268294498        1.02221260060992
H            3.78373182276640       -1.42925047852418        1.59648361162165
H            2.53189348130423       -2.66767962902550        1.36278082782682
H            4.24407773584907       -3.09828799568939        1.16730662749691
C            2.96945799633168        4.14411893383898       -1.06251241104181
H            3.16940404351132        5.15463161536697       -1.41297205288789
H            3.48858840802550        3.98566612831594       -0.11504204690384
H            3.35114118629804        3.43064242291933       -1.79375229293266
C            0.83002155080890        4.14182683588692       -2.15816984623404
H            1.09049145730441        3.32933182216020       -2.83610588553591
H           -0.24604694220029        4.14722383715633       -1.99697111511394
H            1.12398533012556        5.09243872414477       -2.59814947496203
C            1.02492943669688        4.93006519350119        0.10629591258195
H           -0.06247537911071        4.89286366009022        0.13802480352819
H            1.42677052990070        4.70190691711059        1.09285890850639
H            1.33181826620264        5.93194637629369       -0.18683915160992
N            3.43796927667878       -1.93825285577428       -0.39588556037022
N            1.52239681438147        3.95390953423307       -0.87425225312653
O            2.08531487326946        3.62821732111046        2.74223028718593
H            2.20491755455637        3.45940003797882        3.67683739801600
H            2.94356009049608        3.36094990596036        2.32669969457240
O           -4.34455200883777        6.02268216156782        0.37197482263155
H           -4.58076034541124        6.86831981630406       -0.01431193358460
H           -5.12472963693592        5.46317563285344        0.34924991921191
O           -7.29652488529885       -1.26615452222507        1.39544878231991
H           -8.09420155597346       -1.76443785302426        1.20747320637669
H           -7.26371158678489       -1.12695967838623        2.34424174145077
O            4.37501571062742        1.66588969789684       -2.49016038697279
H            4.75760776091580        1.50281785095937       -1.62198744035960
H            6.03098804638199        2.32894779566691        0.13953744711232
O            4.55294468875524       -0.62183607381865       -3.64413916788288
H            4.81401023521175       -0.51126209535659       -4.55597176149503
H            4.50068122076673        0.78671454891631       -2.98412727829265
O           -2.08755615500827        4.66982721457351       -0.65252535041526
H           -2.21482515659837        3.78092374386651       -0.30918039998419
H           -2.78728478531544        5.21582604856147       -0.26482246095162
O            1.72633688562238        1.30165473254262       -3.25203105827188
H            2.66439893597525        1.52344689514882       -3.12431683230625
H            1.75892985297467        0.33577759950860       -3.46010291810623
O            2.20236485022692       -1.30495320050459       -3.65442254943694
H            3.36036341641766       -0.97728395319965       -3.67788680736357
H            2.00536493369089       -1.52134552597574       -4.56422885946192
C            4.51691971510307        1.76483599269693        1.21484425619003
O            5.55867630324828        1.50408898027576        0.30482389427768
O            3.89427632143372        0.77910198350427        1.58457114541218
O            4.33258630432071        2.95928120683953        1.47783959511207
