101
 energy: -141.098593245791 gnorm: 0.000149948627 xtb: 6.5.0 (unknown)
C           -2.54467829160806       -4.56591365910181        1.94366493550596
C           -3.40382762657788       -3.48440388228467        1.29996104856569
H           -2.88923130291022       -5.55281168360198        1.64317793164592
H           -1.50647172579090       -4.45471745903157        1.64014179929923
H           -2.59561221863316       -4.50060087290462        3.02877958378821
C           -2.97834280464579       -2.07212495589031        1.73116899197781
H           -3.33246579832551       -3.56797988271458        0.21461102150470
H           -4.44933476748010       -3.64004647904390        1.57806637503940
C           -3.91555934430126       -1.02751625843432        1.10691031200915
H           -3.08986959935119       -2.00647438529358        2.81929023051872
H           -3.78442336141468       -1.02618541995482        0.02481796178958
H           -4.94426472785626       -1.33515475914660        1.31389179693968
C           -3.72067974659749        0.39369292359448        1.66121495666971
C           -4.93029886321838        1.27485339505663        1.31141376863805
H           -3.65143389453242        0.33272070392708        2.75204034641025
H           -5.02405236538463        1.35539252659849        0.22664366930443
H           -5.83720940968908        0.79652867066590        1.68808250138126
C           -4.81168643398007        2.66820799415496        1.91659672028874
H           -5.69848197558667        3.25802006864686        1.69520176260086
H           -4.70060129170825        2.60264170887728        2.99648493610268
H           -3.94275118965422        3.18585851824429        1.51622914949809
C           -2.45015853601198        1.01550616099452        1.14692003848067
C           -1.47250117156725        1.45700545215472        2.02750884373010
C           -2.21098009817797        1.14364678450183       -0.21575293458194
C           -0.25877067985907        1.92522776500618        1.55895657588781
H           -1.65133170437397        1.39384090450075        3.08990620874104
C           -0.99249346847648        1.58528586589898       -0.68823178369977
H           -2.96436571615273        0.84163622783010       -0.92754966765378
C            0.01508020650550        1.95565391187990        0.19712989030636
H            0.50494226639416        2.21769891896116        2.26719839935607
H           -0.80811863236448        1.56563201346357       -1.74834658558491
C           -1.52467821106941       -1.83239730119452        1.39634092564419
C           -0.62223296741182       -1.54741901367227        2.48725720350712
C           -1.04056860552348       -1.90318314359246        0.15096434688810
C            0.67640818504260       -1.28713437116238        2.28284410477463
H           -1.03371975438962       -1.52668280150132        3.48573394162837
C            0.39575754726078       -1.68541685657925       -0.20413763839549
H           -1.68089562932969       -2.09774898020091       -0.69594250370226
C            1.26922927339716       -1.27718139891478        0.96673341361680
H            1.33024022377436       -1.03881683126069        3.10796970175869
H            0.80048361220200       -2.61487165931562       -0.64465915785742
C            2.54064576712770       -0.89809691336194        0.79607320920621
H            3.01147897455903       -0.87283481675214       -0.17002667859753
H            3.15359334342249       -0.61105238635046        1.63440974105728
C            1.42904887209092        2.18027724720037       -0.26569310178891
H            2.08309268491973        2.18819185738683        0.60879049845972
H            1.70290393894144        1.33516822502298       -0.89833717039787
C            3.06963508856131       -4.46131365440841       -0.79564713163126
H            3.99854812878164       -4.92605066762147       -0.43644631344951
H            3.01286375501342       -4.58386725605791       -1.87501304040072
H            3.09138645438792       -3.39559697756663       -0.57907598790212
C            1.74105366359582       -6.43275690631692       -0.56815536363757
H            0.81717057339391       -6.82742810881941       -0.14515065849608
H            1.68458637496071       -6.50087518274883       -1.65332751783529
H            2.58150829271428       -7.05520870068916       -0.22177627986533
C            1.90075196350791       -4.89268195111168        1.24901224174909
H            1.88144778561205       -3.83233850083949        1.50173541413802
H            1.00796273935848       -5.35570101825089        1.66924680438663
H            2.78569316262847       -5.35620783837989        1.71478121988070
C            3.17443769434260        3.47593937567524       -1.26604552309550
H            3.42887166409941        4.35850260993567       -1.84904090102093
H            3.69462813977770        3.50723176812562       -0.31107580673525
H            3.50476431042340        2.60053586085811       -1.83201747624435
C            1.05904238905924        3.36055193873001       -2.37689917920955
H            1.14125802644716        2.34900742752823       -2.78094375406585
H            0.00962910736966        3.62536239366482       -2.28186068504301
H            1.55412021855289        4.04495376674619       -3.06328416078256
C            1.26880855180351        4.60024906343111       -0.32201938273153
H            0.20574481310877        4.51364787656637       -0.09960855446214
H            1.81388473247821        4.68792534810627        0.61674983360576
H            1.44288213632515        5.49348141535231       -0.91958635987841
N            1.88328063591288       -5.04231610827348       -0.19071688492100
N            1.71786725493754        3.41237366416722       -1.05807270008019
O            3.48460616440335        3.93618482277517       -4.28736395503187
H            3.80419011514363        4.02896018918626       -5.18536001297240
H            3.65219350883481        3.00625511894308       -4.04729222706260
O            3.20278504958620       -3.25246029821443       -4.36215945335798
H            2.65594385118307       -3.13354071693948       -5.13955849452095
H            2.71154007865666       -2.84310680405739       -3.62844923215537
O            4.96914732980006       -2.77741182752604        1.85131067233995
H            5.32408439993580       -2.28505292720509        1.08230893873058
H            4.04493963944912       -2.94045831370676        1.64726468580819
O            6.32631522018022       -4.76993124977523        0.51661651593962
H            5.85046703992025       -4.18751673994198        1.14069175509426
H            7.22097082447665       -4.83863801881759        0.85203947431502
O            3.83169376492556        1.32924810856531       -3.40122010384497
H            4.42153968586043        0.56497970683627       -3.31302180537666
H            2.93146987632694        0.93523426607829       -3.35741437997545
O           -2.70779906057424        0.30090413155748        5.12509969991866
H           -1.90183394861420       -0.02523234798271        5.53122743661077
H           -3.40036658147289        0.24830056131414        5.78672837731070
O            5.98832053974685       -2.03661928588960       -0.54679132914340
H            6.17550508595648       -2.97476914034809       -0.67693927523624
H            5.55184849268559       -1.72897098809205       -1.36371465232966
O            4.69184683639979       -1.29128668055511       -2.85704538432329
H            3.74881867712464       -1.40184522602193       -2.59840984867020
H            4.80440757694876       -1.96185293231972       -3.54052305491167
C            1.37277105501218       -0.72159847080224       -2.20990673843331
O            1.41693038746421        0.32391408469987       -2.87455774226024
O            2.09190642772571       -1.71782155640039       -2.32456157484290
O            0.42318290533496       -0.67663215271521       -1.21360159952839
