101
 energy: -141.133806782524 gnorm: 0.000136807953 xtb: 6.5.0 (unknown)
C           -2.83453074690339       -4.28554242494140        1.60477281294740
C           -3.63228257574085       -3.20500157723590        0.88546089455165
H           -3.26526360262861       -5.26586010751201        1.41438220809134
H           -1.80160826714750       -4.29073284791645        1.26304523972349
H           -2.83893659739130       -4.11276677421706        2.67891246416962
C           -3.07287095942969       -1.79522624181428        1.14157643129163
H           -3.62480455476275       -3.40379802571277       -0.18788832935619
H           -4.66958674689777       -3.23665223448134        1.22453763150045
C           -4.01140147704034       -0.75254510329062        0.51777851730110
H           -3.05650944937951       -1.63203737815054        2.22539716757820
H           -4.03481107630995       -0.88051447581618       -0.56455561802006
H           -5.01756803127570       -0.94240493413624        0.89625603866847
C           -3.65847170972852        0.70781831547402        0.84599699244652
C           -4.85165432681962        1.60348550679665        0.47718618825138
H           -3.50072517861552        0.78602654863167        1.92807235413841
H           -5.10074668128387        1.46371976925166       -0.57584792613258
H           -5.71117101957130        1.27975536007438        1.06616023294453
C           -4.58337280832891        3.08145264976168        0.73370448983627
H           -5.49243290539787        3.66144374513701        0.59180479382096
H           -4.23406171276378        3.23695441197496        1.75291708260354
H           -3.83225422699642        3.45415019445738        0.04096899956440
C           -2.39268577784531        1.13822008945080        0.15170570426462
C           -1.24986429048627        1.42760054530742        0.88843636030532
C           -2.31154653774853        1.21282746217628       -1.23433801832902
C           -0.05471078745898        1.73529172666261        0.26182373288469
H           -1.28614576701434        1.37845903921279        1.96811338837915
C           -1.12143984222877        1.52076141091786       -1.86513537118059
H           -3.18103340047033        0.99751582265535       -1.83626024083970
C            0.02630873311161        1.77954415846784       -1.12408027735989
H            0.82745361233248        1.91404705181199        0.85857624010421
H           -1.07286999738743        1.50264180686238       -2.94208049974652
C           -1.65987548434839       -1.70303463495906        0.62752331191232
C           -0.59167988880853       -1.62421935380187        1.51222514444620
C           -1.38247263186225       -1.70417530803085       -0.73444834897291
C            0.70923139109365       -1.52309551310363        1.05404498399801
H           -0.78022393871264       -1.62788285436487        2.57671478173574
C           -0.08865049930180       -1.57775330262363       -1.19836733157152
H           -2.18591059544320       -1.77484744433988       -1.45060980232140
C            0.97669796563697       -1.48929651161076       -0.30899017728417
H            1.51843375828889       -1.44076579247462        1.76691212861040
H            0.09843127623842       -1.50436176341603       -2.25778806256744
C            2.37260437376404       -1.30898333247819       -0.83185434672769
H            2.31730607863123       -0.77116928889582       -1.78649529914362
H            2.97833893772613       -0.73732640615167       -0.12726473331280
C            1.34024422440595        2.02408133338870       -1.80834194863831
H            2.15829931826966        1.66834880998820       -1.17767898624831
H            1.35591791114329        1.46944734372385       -2.74896302239964
C            4.46496212908258       -2.26266594905877       -1.52767231183582
H            5.01953273471739       -3.17418427962780       -1.73736260930948
H            4.43510631516084       -1.63255968866729       -2.44621407429226
H            4.96367426054506       -1.70984687221337       -0.73584003240684
C            2.42294479535784       -3.24324098664922       -2.27676294561542
H            1.43854757902564       -3.60082992070603       -1.98406157545910
H            2.30976123904051       -2.49042134093703       -3.07621701925985
H            3.02575711772294       -4.07507633499803       -2.63243709936577
C            3.09325635941161       -3.47795799092291        0.03120314004719
H            3.61377897826023       -2.99723281412048        0.85815651584995
H            2.07298456737744       -3.70343576825679        0.33850410909658
H            3.60543134916596       -4.40680422610662       -0.21595280659194
C            2.95031956754668        3.48826700227793       -2.78153363623812
H            3.12665558611179        4.45808634402279       -3.23890484075466
H            3.72854403696079        3.27127354675848       -2.05512655819567
H            2.98670617722066        2.72930729895059       -3.56437324327588
C            0.61866175118152        4.00226436984081       -3.03558341739108
H            0.58968349902237        3.41072859626632       -3.96088289390449
H           -0.35500159111687        3.98953442458360       -2.55141315091829
H            0.87813271741139        5.02615116586578       -3.29452734385098
C            1.68691080133202        4.25616546843524       -0.90053426988113
H            0.69831358653382        4.33223398619553       -0.45173919407655
H            2.37731759733936        3.79755906753407       -0.19528623712881
H            2.04004815485889        5.25706554091954       -1.14224656564201
N            3.08453212493250       -2.58848402573597       -1.13670688759614
N            1.63337819488509        3.45150553652546       -2.12749319998917
O            4.98673396044497        2.53699438600730       -5.09479714286167
H            4.23248627301476        1.87418940999084       -4.95879490867127
H            5.52203998452663        2.15686037618863       -5.79152193490486
O            4.20882131835785        1.51331485509134       -0.37257250083586
H            4.67873683934379        1.39180229892486       -1.24647204351039
H            4.91460697390884        1.70743610100785        0.24549066608317
O            0.76295442177216        2.25897490743366       -5.47377800440783
H            0.10751982232821        1.55851609919071       -5.32648314829183
H            1.61329561678476        1.79095977868011       -5.26091785580633
O            5.57173935092661        1.27230463173477       -2.61170014197711
H            5.09996888065746        0.51907824488843       -3.08036204798778
H            5.56511657071102        1.96275169557447       -3.29138795880823
O           -0.38115997833881       -0.10728078317405       -4.61248156676497
H           -0.47549698897161       -0.66723081966718       -5.38362481892020
H            0.55401336576740       -0.30281132149440       -4.27645954283044
O            2.91750323221789        4.42855947390427       -5.71007091666227
H            2.18859190794606        3.81782859492512       -5.86725716103783
H            3.69831241800811        3.86414821423702       -5.59040648698794
O           -1.34399581714455        4.61444901423640        0.11121958758551
H           -1.57319039919955        3.72316474285609        0.39762605748821
H           -2.03206403540380        5.20327193932257        0.42666126685350
O           -7.35132309099837       -0.81780897061078        1.28833932947470
H           -7.69165452643879       -0.74146072128243        0.39433757924544
H           -8.09081079647908       -1.04517885500539        1.85547144667566
C            3.03504726706230       -0.08985309146326       -4.08070094754364
O            2.93784791797811        1.04380670217534       -4.66199089668962
O            4.17432292506301       -0.56003934346097       -3.78036323270332
O            1.97650484455989       -0.72347511767759       -3.73834237160237
