101
 energy: -141.103982247368 gnorm: 0.000114011154 xtb: 6.5.0 (unknown)
C           -2.18972130849086       -4.34745405113942        2.23631671953725
C           -3.11776146584472       -3.60822100611380        1.28056100975992
H           -2.54911282955744       -5.35892794053385        2.41220334590629
H           -1.18624946893230       -4.40320701498119        1.82165227028408
H           -2.13619055552914       -3.82904327498860        3.19117816074774
C           -2.64855766957399       -2.16473857530817        1.03354946152851
H           -3.15932013185872       -4.14202577904021        0.32907485490462
H           -4.12922392716455       -3.60195748662045        1.69787854181267
C           -3.66831865932141       -1.41676386672617        0.15256937838379
H           -2.57823592676452       -1.65510625300232        1.99985332027742
H           -3.53827089982093       -1.71228885277691       -0.88833612243699
H           -4.66891993181696       -1.74838581184575        0.44901685747378
C           -3.65658160066953        0.12043672940191        0.23973778702084
C           -4.95337451814878        0.66728878488897       -0.38752525979463
H           -3.62473085134731        0.41787150899825        1.29328753276087
H           -4.89781975931119        0.55672881103852       -1.47062255588185
H           -5.79738403710040        0.06091021626848       -0.04264040962080
C           -5.22644610218731        2.12755371550317       -0.04529042664063
H           -6.13319127406902        2.46421288314262       -0.54238978786319
H           -5.35031718923828        2.25930990682943        1.02871874500573
H           -4.40079851094959        2.75392713284143       -0.36720116049026
C           -2.43275836308187        0.75199892726880       -0.41430892782012
C           -1.29630739916675        1.23289305418225        0.44185173672718
C           -2.07171100528590        0.37361395759677       -1.78304217530994
C            0.05245353430693        1.17280624134363       -0.10321390517752
H           -1.38932368365639        1.13090146284781        1.51963160202776
C           -0.81650747717784        0.50917343194297       -2.24429928819526
H           -2.85201319003409       -0.01553959487719       -2.41818777655603
C            0.28984783408005        0.85910045445400       -1.39312509109036
H            0.86225039408950        1.31840246471073        0.59419658156468
H           -0.59413217106809        0.24734392852016       -3.26899160386557
C           -1.27820666300379       -2.15185383954122        0.40815041887795
C           -0.18449502117893       -1.67097773447472        1.11667882451068
C           -1.07726089863923       -2.56506283888615       -0.90238443689049
C            1.00868808704593       -1.40770209989338        0.47258147604249
H           -0.29508511752007       -1.42974200353057        2.16381880257657
C            0.10386312623640       -2.27255695811346       -1.55528948768241
H           -1.87388127479335       -3.04770084957827       -1.45018674404302
C            1.12352920000808       -1.59388132284049       -0.90117896458817
H            1.83272991724643       -0.97042592833429        1.01725304033698
H            0.20945448132482       -2.51236279841855       -2.60378289550698
C            2.16487415902144       -0.85098294621630       -1.67498044759674
H            2.32770845199473       -1.31664613698230       -2.64545308323662
H            3.10926237226534       -0.84080602278120       -1.13641769054227
C            1.69179089098122        0.63062578560573       -1.88510470640388
H            2.36527815742682        1.29037805684956       -1.34194420592959
H            1.75960836172662        0.87083955586065       -2.94573585954011
C            5.62240360214620       -4.06687256220732        0.90305409050667
H            5.61343341191607       -5.16031037997704        1.02755647365821
H            6.26768425827959       -3.81871749309467        0.06237993436581
H            6.03321362880455       -3.61775903034546        1.80672392096027
C            3.76086112426204       -4.02360347510210       -0.59650507216395
H            2.77427577136990       -3.59249142528524       -0.75630230311207
H            4.41523524202040       -3.71579185053713       -1.40994843920827
H            3.67256934975535       -5.11986006263150       -0.60557578689374
C            3.40436708423232       -3.81136476946106        1.76305866085640
H            3.80328645449357       -3.36160465215522        2.67197735968449
H            2.42805696765267       -3.37674648947857        1.55384572061765
H            3.27815770611903       -4.89135383039050        1.93453782302488
C            4.99292118120328        4.42667951001937       -0.56817975491178
H            4.85741502405858        5.50343015651522       -0.38860010470732
H            5.41131113030674        3.97443809637986        0.32983976863280
H            5.69970008627371        4.29461892429874       -1.38578601414425
C            3.17770570540725        4.29967441342512       -2.12356534337978
H            3.88028126164662        4.14278847704018       -2.94091243138265
H            2.25035992305443        3.77573629262272       -2.34708084104177
H            2.96142118529925        5.37471762509411       -2.04570279235372
C            2.80102954014404        3.85867716340311        0.19819184243649
H            1.85658774211135        3.40513936131226       -0.09491370925359
H            3.20258064658236        3.32745428155307        1.06087198062916
H            2.60739591813646        4.90142465728976        0.48768376543300
N            4.29837518975351       -3.52560166815317        0.65819002246153
N            3.74574043551837        3.75995982687206       -0.90071550768982
O           -2.49994025130600        0.22018771294903        3.67128770653546
H           -2.29612391458885        0.68216248028460        4.48553780225983
H           -3.44587060844271        0.00302354733025        3.70940074359027
O            5.85910119505988       -2.09360624368520       -2.59949646160196
H            5.27331993764009       -1.49369226227877       -3.10964305335833
H            6.75525782158248       -1.86249388297292       -2.84941373647422
O           -7.43068498807430        2.56560613183363       -2.81733182711707
H           -7.68573197163109        3.07327386663912       -3.59096053824872
H           -7.77140285972292        1.67585424270663       -2.93680830018842
O           -5.17458712719371       -0.55600049893797        3.30934368339297
H           -4.96971810792537       -1.40549284641760        2.90949772244659
H           -5.51664229883696        0.00593735342352        2.60872127787437
O            5.18397207291892       -0.93541235229546       -0.16775112236743
H            5.49282447854027       -1.38746777267840       -0.97426958574234
H            4.76981168345846       -1.64553228616339        0.34764795873323
O            5.08764106452629        1.36852007749821       -1.72738009346028
H            4.54147115309675        2.09646625881675       -1.38549984278167
H            5.12339373143814        0.68757709418482       -1.03527502416099
O            4.52227266209948       -0.10137551725935       -3.87567329858821
H            4.97962921153364        0.33390032287763       -4.59621199955886
H            4.63941660698064        0.48438677237951       -3.08925136705662
O           -4.79738679473987        1.70984621320749       -3.56655619945846
H           -5.58319571452421        2.12107100221015       -3.18031790986957
H           -4.05478408549853        2.24049589623764       -3.26627722074650
C           -1.54421123067667        3.67872693883336       -1.96936315415676
O           -2.22655440131048        2.12370747032726       -0.11765380407908
O           -0.50222459421056        3.88045347725153       -1.54288866747665
O           -2.56176072706643        3.55069577338472       -2.48122291584167
