101
 energy: -141.135224549255 gnorm: 0.000573202072 xtb: 6.5.0 (unknown)
C           -3.45743993728975       -4.28082117265646        0.69621994093202
C           -4.00195128738135       -2.98106549297874        0.11639669740300
H           -4.02843667224533       -5.13090157673014        0.32981321835097
H           -2.41529136367631       -4.41695826192202        0.41529076749527
H           -3.51818363465433       -4.26932193957864        1.78219392837033
C           -3.23296550293718       -1.75523852110723        0.63146625878998
H           -3.94456971108302       -3.01808644090345       -0.97295145090122
H           -5.05389828289604       -2.87446233213217        0.38910281504726
C           -3.88489384773733       -0.46504335726571        0.10843896812971
H           -3.30516487348646       -1.75230145307087        1.72491248506327
H           -3.77716527238688       -0.41362189107312       -0.97553923737972
H           -4.95208804496704       -0.51438746954742        0.33332215564284
C           -3.32183409341355        0.81759906317271        0.74415434760765
C           -4.30579617981291        1.98082557082428        0.54492961312448
H           -3.21886791941201        0.64774644836610        1.82169699975068
H           -4.42679066467806        2.18008533598470       -0.52128964306245
H           -5.28041183254310        1.68564658315251        0.93755405769879
C           -3.83783909792801        3.24945775842842        1.24753321292685
H           -4.56231969132577        4.04942285110653        1.11269571211700
H           -3.71598780226580        3.07249576126291        2.31384553571425
H           -2.88086624528245        3.57799961123653        0.84751499768952
C           -1.95845447772096        1.16333791576444        0.20311979873571
C           -0.85073839496981        1.16302080977992        1.04136399485429
C           -1.76665447517661        1.46798704257222       -1.13972602963848
C            0.41546497795705        1.40045164608631        0.54467400802446
H           -0.96046780634929        0.93063805371637        2.08966322628069
C           -0.50248331880249        1.72361532411013       -1.63780001592191
H           -2.60939272827928        1.48677666477407       -1.81565282726462
C            0.60798665992576        1.67652362493732       -0.80328780954936
H            1.26851932178247        1.32263045661180        1.19857303915315
H           -0.37812780738788        1.92783112226565       -2.69321005644910
C           -1.77459969055661       -1.83387871511813        0.26452889606772
C           -0.80003039267863       -1.86910500926775        1.25291594638773
C           -1.36299801998120       -1.83618282782741       -1.06292316135577
C            0.54422267151009       -1.83507950888536        0.93385096816707
H           -1.08801510360047       -1.87067077596002        2.29306640621219
C           -0.02102087867648       -1.81604887389536       -1.38728560569567
H           -2.09542342558637       -1.82429411497747       -1.85656103271411
C            0.95084312905327       -1.79001993665927       -0.39307672739528
H            1.27266864602727       -1.77164573632278        1.72610702858572
H            0.27266484997785       -1.77935623757488       -2.42771930556581
C            2.39650474225142       -1.60320479165823       -0.75898648028987
H            2.45614340949453       -1.17097745450251       -1.76030034886231
H            2.84988576374033       -0.90816952781939       -0.04921819896568
C            2.00440893383762        1.81458849291662       -1.33822712544029
H            2.66092083159878        1.18989879274508       -0.72664590308599
H            2.05463508126591        1.48473976898286       -2.37715447282668
C            4.45807501579550       -2.54903942641556       -1.52810508086337
H            5.12602772036242       -3.40639381044449       -1.50081641640670
H            4.20592047518426       -2.30273178441734       -2.55638724704719
H            4.96807208580460       -1.70246177024559       -1.07242675226655
C            2.53036756342053       -3.96352017810224       -1.36385911571022
H            1.63816959826852       -4.19968497079683       -0.78598447571507
H            2.23342113397354       -3.71019196265892       -2.38039858500657
H            3.18549292202726       -4.83265579361280       -1.38844476126904
C            3.64706901367149       -3.17891657002877        0.61981054518511
H            4.16716763511626       -2.31334169697745        1.05035115464492
H            2.77663040213904       -3.42578047755333        1.22045396793953
H            4.34406537865919       -4.01421402691525        0.59467906997978
C            3.92783554416963        3.12262365560733       -1.87003145963078
H            4.41365327886067        4.09331750413462       -1.81534484976697
H            4.53816858050327        2.40419602692871       -1.30451343324533
H            3.85418377805820        2.79516043585016       -2.90428720597684
C            1.75704353511190        4.15646416564961       -1.97204339995334
H            1.69322550607558        3.88907221389308       -3.02603785254045
H            0.75360667287419        4.16411351554673       -1.54829782932381
H            2.19173333474016        5.15087052180906       -1.88339117858737
C            2.73707323971506        3.57537068140517        0.15353174063881
H            1.76277342135555        3.78614509502688        0.58700621427772
H            3.19925265698495        2.73711092262641        0.69539313424146
H            3.38761099003724        4.44185567506660        0.23772947154669
N            3.24199499456770       -2.83599818969039       -0.75313965572120
N            2.59200545437544        3.18468903821524       -1.25860629472199
O            5.85074148668122        3.86036622216326        0.49664648525771
H            6.54549473177989        3.89080782093061        1.15451481228939
H            5.70557385094226        2.89787634813376        0.33347728646887
O            0.40975087256156        0.24143035254767        3.94922758535679
H            1.19593013177213       -0.16598904931253        3.53304841941820
H            0.75230603633673        0.98484641956748        4.44718531068583
O            3.98391074175144        0.12313362616701       -3.45400240263712
H            4.80425076390998        0.12010994754683       -2.90473980443025
H            4.29168272588019       -0.01163888409507       -4.35134679773170
O            6.33907419442176        0.08422048864090       -2.12641271127940
H            6.02742233780926        0.52641304725896       -1.24225312878957
H            7.00998015102427        0.68225395836994       -2.45682764315957
O           -6.50091627039952       -0.29915006580453        2.23154054645550
H           -7.22091024631255       -0.40757177121560        2.85561639889167
H           -5.68436137337439       -0.29827434441546        2.73637094372592
O            2.74316962904943       -0.73478377527015        2.88126837818760
H            3.52859294253431       -0.95176708821382        3.38507176114990
H            3.07809517407986       -0.09686050538271        2.16896654952003
O            6.54920801275350       -4.32295311338340       -0.16981028782708
H            7.26258574561777       -4.83339933804494        0.21333592410425
H            6.84343183545315       -3.37882224685543       -0.08960919477519
O            7.31875823204900       -1.76415266451443       -0.03719747697190
H            7.30848029327778       -1.31754735559777       -0.89160025274574
H            6.57925846561667       -1.31338418760554        0.46283804613086
C            4.76096310060340        0.48976586327436        0.67253982706221
O            3.61252685717619        0.88993510494493        1.06652481848482
O            5.44960498283357        1.26610366165176       -0.09564874039791
O            5.17013707963059       -0.66414792382827        0.96437842302421
