101
 energy: -141.085316873343 gnorm: 0.000099185016 xtb: 6.5.0 (unknown)
C           -2.77811894996318       -3.69179191814006        1.46793495128298
C           -3.60710637074864       -2.80199250858446        0.54989938657949
H           -3.19397510368231       -4.69589531519571        1.49204258594527
H           -1.75389942503382       -3.75962201452344        1.11109572627434
H           -2.76939329037445       -3.29887014343570        2.48406950098552
C           -3.08330191274046       -1.35589345875606        0.53624703722278
H           -3.56845532761717       -3.20903562062417       -0.46067156850539
H           -4.64880248308375       -2.80194233762307        0.88436183728430
C           -4.03991485630233       -0.42351367816711       -0.22937066949440
H           -3.02560683526964       -1.00986649076032        1.57554481587958
H           -3.84806913574260       -0.49992294918786       -1.29898117338850
H           -5.06751366635803       -0.75435742901894       -0.06120581927376
C           -3.95396019645415        1.05380047692520        0.19988344139239
C           -4.76317862409742        1.93484864000194       -0.76263870295550
H           -4.40451964578475        1.14106814026429        1.19538330831273
H           -4.30759319053465        1.90344421843437       -1.75402403078322
H           -5.77226288599436        1.52672453168077       -0.84823630351931
C           -4.84153904412043        3.38060501318109       -0.28706154993281
H           -5.42331662651054        3.98010122267863       -0.98330472339174
H           -5.31549733896727        3.43627151948539        0.69059812199761
H           -3.84522342133475        3.81162054842695       -0.20924636423961
C           -2.52781870091157        1.52019986214685        0.30170249970172
C           -2.02545818396460        1.95975530400939        1.51905877394149
C           -1.65973327052534        1.47143926375951       -0.78329034620715
C           -0.68786731394322        2.27121894636806        1.66595282057291
H           -2.68313645751024        2.03143413300206        2.37348705582033
C           -0.31427191507002        1.74651611278478       -0.63201699470581
H           -2.02409034057799        1.16092996431998       -1.74947353702939
C            0.19824331816748        2.13031359934423        0.60388964014577
H           -0.31782175262127        2.58298675170685        2.63273783941966
H            0.34394317257517        1.59374052572035       -1.47295924663250
C           -1.69654075272648       -1.34684016396587       -0.05389784424252
C           -0.57907880222029       -1.12903872863292        0.73833696815006
C           -1.50184606129865       -1.58918397482040       -1.40825099683107
C            0.68819706477117       -1.10535736347527        0.18978526863538
H           -0.70098433068299       -0.97083240032447        1.80034737222404
C           -0.23854485062519       -1.55823785469515       -1.95972641409975
H           -2.33877766474516       -1.82986685323997       -2.04420894038000
C            0.87603590624557       -1.30848562927749       -1.17050745743170
H            1.53875912241160       -0.92509093009647        0.82917117900036
H           -0.12197935658035       -1.74102293129309       -3.01826559888438
C            2.24931206861966       -1.26234264701401       -1.78528065826958
H            2.17299453125278       -0.94588471759539       -2.82918025133266
H            2.88062339910220       -0.54534781157575       -1.24051190975160
C            1.66753286243367        2.25631680450067        0.87479383186451
H            1.81814376445625        2.25597095994383        1.95479472289283
H            2.22740069086044        1.40977587902434        0.43951164383493
C            4.23540695104559       -2.44519152165779       -2.47513459216863
H            4.79975859598697       -3.36878989762105       -2.36720747542321
H            4.05835192932116       -2.26023572656137       -3.53337331634414
H            4.81747928570731       -1.61894858877146       -2.06736342230259
C            2.15106946861508       -3.61638291640796       -2.43094066876680
H            1.23683517605286       -3.78557566332051       -1.86146533435157
H            1.90709347597280       -3.31488392591757       -3.44722135532523
H            2.72061122915838       -4.54766728081953       -2.44744911795175
C            3.19802381453170       -2.98044978282739       -0.37751527596962
H            3.72817529659445       -2.18852613786016        0.14522480075603
H            2.24754255909881       -3.20598792238167        0.10582980151212
H            3.80130135945671       -3.88322264583506       -0.36513528606807
C            3.73957876404944        3.43804728288019        0.85100976962591
H            4.32280958962588        4.24618901847295        0.41712654643103
H            3.75055946303301        3.52180767011100        1.93443127733336
H            4.15056391399744        2.45492049413104        0.54615143900838
C            2.38130238009292        3.48060695268135       -1.10450504140447
H            2.87065886207912        2.56410599018038       -1.43302121070122
H            1.37080025975261        3.52434976054716       -1.50236166239120
H            2.94520172874674        4.33813809451175       -1.46846032796420
C            1.66883381466261        4.68362429643651        0.86599267890427
H            0.63382793735132        4.69027402318537        0.52749102367385
H            1.68559738554693        4.66979206559560        1.95443211766313
H            2.17252655274125        5.58104435244849        0.51054908863944
N            2.95298467189635       -2.57691372146221       -1.76834704363958
N            2.35009082075797        3.48576348162521        0.36297028340055
O           -1.82127811630968       -4.61185450049649       -1.70432126755408
H           -2.03415386288608       -5.51506116943794       -1.45980919422115
H           -1.07895861891759       -4.38753704749158       -1.10461715777358
O            5.82383829919119       -0.06768852782789       -1.33587046119864
H            6.33666571784099       -1.24306482095867       -0.38023674798387
H            6.45614769587483        0.64879358963252       -1.33206783110083
O            2.53480999604248        3.35252175330173        3.94431145557872
H            2.88274182624160        2.51023779816113        4.24935495295608
H            2.34447308188126        3.86947203602108        4.73023109342496
O            5.96844496187658       -4.57012843058292       -0.15212680129662
H            4.66689169950942       -5.78355697960627       -1.13075927792230
H            5.88130852063870       -4.92244267126602        0.73516416223903
O            3.92530180414165        0.70380623085368       -0.00840802056800
H            4.91451195360002        0.32868374752235       -0.72792250183746
H            4.09119819088161        0.17807031455470        0.77513987976975
O           -5.91984875706049       10.77227373111005       -5.78303797409445
H           -6.80609308430219       11.01415062540776       -5.50682271265689
H           -5.89003720137746       10.85198919596861       -6.73854407790669
O            3.84470998931809       -6.04840112567944       -1.55968087004371
H            0.19718758213469       -7.23185836066354        0.56639773617600
H            3.17293705164042       -6.07364596390105       -0.84954306975819
O            6.70930913015535       -1.96212150150696        0.21636880257301
H            6.19737359685884       -3.62367970620790       -0.04197713140178
H            7.64240750115567       -2.00479470126582        0.00413323199924
C            0.76017567456912       -5.42842899284491        0.21991382465143
O            1.92086465375834       -5.80046348435065        0.39360147431138
O            0.34971238376841       -4.29676088061431       -0.06829842199619
O           -0.23394738661784       -6.39799481095301        0.34446555902079
