101
 energy: -141.145148976612 gnorm: 0.000203074615 xtb: 6.5.0 (unknown)
C           -2.66620837700854       -4.11581662102338        1.26986303209491
C           -3.50532473877114       -3.00712059432274        0.64643068480145
H           -3.07551596905109       -5.09053150412532        1.01496391530902
H           -1.64031190270561       -4.06751108300812        0.91129163674525
H           -2.65418512868937       -4.02189372319334        2.35362153244230
C           -2.98219996046008       -1.60771103355198        1.01092982507486
H           -3.50911099482601       -3.12170858569243       -0.43904406009367
H           -4.53657813993830       -3.10053198460593        0.99398122767992
C           -3.91203569185734       -0.52873158648136        0.43256071061217
H           -2.99446109280554       -1.51905370497032        2.10336559857024
H           -3.77943823521657       -0.46884685615527       -0.64759944729575
H           -4.94535087312997       -0.83379214929009        0.61790169059176
C           -3.71586489335826        0.86264823936266        1.05328866352805
C           -4.76132012886771        1.83998787357499        0.49291767292087
H           -3.88259593388138        0.77610617622249        2.13361882509801
H           -4.59942291298171        1.96725405932963       -0.57893177280231
H           -5.75696194651036        1.41188015937147        0.63079496164208
C           -4.69918753922118        3.19950922331922        1.17801185151590
H           -5.45751682254381        3.86464188438073        0.77177450243049
H           -4.87046712955351        3.09710932700483        2.24750195285965
H           -3.72352912823650        3.65690702032686        1.03019470562787
C           -2.32468292896854        1.39827945535770        0.83549433971910
C           -1.53555136669990        1.75947478187735        1.91979090841758
C           -1.79279359699592        1.54923252730160       -0.43865964273207
C           -0.24610929504192        2.22209904944286        1.74068494514825
H           -1.93134900596620        1.66823042302212        2.92155757721816
C           -0.49641663422672        1.99203234527135       -0.62494441251426
H           -2.38431543090813        1.29823663706348       -1.30565525830780
C            0.29756937230661        2.32856388194338        0.46520087745245
H            0.34276785997991        2.49736703288769        2.60109779189908
H           -0.09857450887898        2.04395732491573       -1.62817678215237
C           -1.56056756050025       -1.44660860417509        0.53768362962210
C           -0.52044139996759       -1.30575921368726        1.44674295081888
C           -1.25044841999449       -1.44113509013320       -0.81770615505785
C            0.78278096075771       -1.13112284234443        1.01740738004668
H           -0.73461303475670       -1.31952509935886        2.50601399031325
C            0.04448198604183       -1.24137371013582       -1.25126351521309
H           -2.03258039803325       -1.56846296928739       -1.55077417511705
C            1.08122693136272       -1.08094756720933       -0.33789773714091
H            1.57515372258672       -1.00773239127045        1.74087344057664
H            0.24911100250185       -1.18109744174979       -2.30835749548891
C            2.47613990930787       -0.79347708005176       -0.80780373291775
H            2.44674492374636       -0.17321107859071       -1.70757006755027
H            3.02459648700016       -0.23822819936961       -0.04503557668248
C            1.72872621759225        2.74716818675225        0.27595204899949
H            2.35084241783940        2.35213781770591        1.08879344885921
H            2.10125208542207        2.32725912280838       -0.65872537595291
C            4.52350867606431       -1.56036307837134       -1.80509943672412
H            5.18464289891431       -2.40637974986271       -1.97737868534636
H            4.27447265527768       -1.08789086233649       -2.75133019839974
H            5.01601323670026       -0.80872043149146       -1.17240522290067
C            2.56155405091083       -2.91062281654347       -2.03196324739308
H            1.66457094677943       -3.28638975249136       -1.54409666630462
H            2.28211181114385       -2.36737925366394       -2.93859243999515
H            3.20009691892892       -3.74958998261797       -2.30300894588329
C            3.64351095682134       -2.69436282881873        0.11284591853007
H            4.22927601038062       -2.02070425767287        0.73656172902829
H            2.73883579692360       -2.98234036736538        0.64573181060669
H            4.23276186685386       -3.58487512759454       -0.10088284839139
C            3.39008991587776        4.48566103224620        0.28618453952945
H            3.57127463449509        5.54885047966008        0.14784453814370
H            3.75890173813575        4.17012546197450        1.25906646885103
H            3.92195039514977        3.93341889182328       -0.48921295488179
C            1.41686039861280        4.74412927733434       -1.06364146876774
H            1.94543929913731        4.28231031111581       -1.90064672696952
H            0.35444999069445        4.52265311038230       -1.13954680607189
H            1.57603774169441        5.81927761358790       -1.10788970163362
C            1.28899480343185        4.91663008717820        1.32353807504042
H            0.20967935024187        4.79586523289274        1.25997561524959
H            1.63727824538774        4.51226451855762        2.27446502347092
H            1.53269152523752        5.97590669848762        1.27127617085070
N            3.29115134781427       -2.00486052490776       -1.13451231887692
N            1.94406143339524        4.22272981260052        0.20665364670252
O            5.23249311077567        0.60368839143093       -0.03717206861858
H            6.11551619769260        0.90264527469879        0.17468437732302
H            4.84041862971855        1.62057925200914       -1.13131638369258
O            2.00606201652829       -0.85539421898483       -4.28527169367452
H            2.60016219344015       -0.15958084532106       -3.95417750544310
H            1.21200178815511       -0.36708089417016       -4.52440969923571
O            4.39401152543972        5.71769870430268       -2.85833080427443
H            4.03356935629812        4.78987117291801       -2.89561714869080
H            4.46016715482137        5.98622265311292       -3.77524331806412
O            2.24294767473183        0.80994563385941        3.74973746851900
H            2.92803441449102        0.91764727911182        3.01904341619482
H            1.42998585817372        0.55835197023184        3.30760751232793
O            2.12470382663880        3.49581696071960        4.03316205756306
H            2.19276178062243        2.51395611281376        3.99517880455880
H            2.41449993007012        3.74051919503343        4.91184498575951
O            0.72332390710330        1.76924809592890       -3.73754619195956
H            0.79395604116837        2.59526129171095       -4.21963363665006
H            1.64273166513365        1.60021831036923       -3.43201777925681
O            3.16025598443699        7.34561464767276       -1.10825387318426
H            3.59155412717559        8.19584909469908       -1.19650212484283
H            3.60943679676180        6.75347728594759       -1.75570167863540
O            3.91809798917983        1.34361412833682        1.88218497292144
H            4.55449937292156        1.86718704268408        2.36786026760203
H            4.54200964920468        0.97372248936862        0.94967262612618
C            3.68767906065439        2.30869004769352       -2.63461428192470
O            3.23875237819666        1.16728103264412       -2.88579031189520
O            4.64601676799881        2.45353792362740       -1.71089729679750
O            3.25337233723697        3.35699022531894       -3.14623237404888
