101
 energy: -141.148191295376 gnorm: 0.000398476109 xtb: 6.5.0 (unknown)
C           -5.01604028361623       -4.29102789733448       -1.65721253428794
C           -5.27640559528399       -2.93628245236463       -2.30493478771271
H           -5.35304616682893       -5.09501818081551       -2.30748673264763
H           -3.95523446641845       -4.42557101380416       -1.45979844661937
H           -5.54971382431261       -4.36875538769242       -0.71256860630316
C           -4.79130152933553       -1.77846582080996       -1.41822465153051
H           -4.77187064739233       -2.89144941572439       -3.27200662163961
H           -6.34836014006863       -2.82320315869806       -2.48491668929411
C           -5.19974011207121       -0.42541558019231       -2.02346367607655
H           -5.28627317874926       -1.87574700505467       -0.44549110163531
H           -4.60592482673211       -0.22599756716371       -2.91617605799178
H           -6.24592488910310       -0.49350700291703       -2.33377494770027
C           -5.07395315954270        0.75499259457919       -1.04585694855271
C           -5.73220913939312        2.01005413471085       -1.63935743432011
H           -5.61891065941825        0.49414717746078       -0.13167281742323
H           -5.21274595367762        2.29874106110269       -2.55503606998636
H           -6.76521663767404        1.77519150695956       -1.90614899472831
C           -5.71974083709954        3.17697410502452       -0.65944213804748
H           -6.19900852179057        4.04881170375464       -1.09900896733459
H           -6.25297763156985        2.91512905133927        0.25153996313728
H           -4.69899515534903        3.44024996794113       -0.39144270254386
C           -3.63925055553362        1.02615006256297       -0.67386114885151
C           -3.21148979190173        0.87867267469653        0.63860565468578
C           -2.70312841032767        1.40591578087273       -1.62834542571638
C           -1.88538449438180        1.05125150978545        0.98573110312330
H           -3.92069764959692        0.59586855726404        1.40152086019414
C           -1.38021349187089        1.60034965927163       -1.28350680074548
H           -3.00159402381847        1.53470249228222       -2.65828667969122
C           -0.95017150048846        1.41453509865967        0.02621846867612
H           -1.57382272412319        0.86594453062434        2.00002380855707
H           -0.66734961758959        1.86919494685401       -2.05168055271044
C           -3.30275563651491       -1.87528040605301       -1.20182292953240
C           -2.78571626937559       -2.09187905659866        0.06825806212007
C           -2.41251062067947       -1.74077494096730       -2.25996927109385
C           -1.42328224960519       -2.12234675448638        0.29166116457438
H           -3.45858647176382       -2.21708436627537        0.90278282889414
C           -1.04834810602092       -1.77591049029146       -2.04596275552541
H           -2.78198499119776       -1.58760482612220       -3.26366486867298
C           -0.53794811254082       -1.95548607238262       -0.76628658246187
H           -1.04896250203317       -2.24391316235304        1.29747161493168
H           -0.37648481745739       -1.63141372460083       -2.88146991120764
C            0.94046123872771       -1.90393055605527       -0.50505068536818
H            1.43218632748978       -1.21946127719003       -1.19978858155688
H            1.09714677619350       -1.53419731939661        0.50708106652684
C            0.50769036499416        1.52587662018595        0.36982223702953
H            0.76389603862995        0.76455728385367        1.12082675271421
H            1.10392085170904        1.35099279872941       -0.52681282890388
C            1.58605167635095       -3.75498329543751       -1.94960719336097
H            2.11899327792500       -4.70353452159649       -1.98426906260546
H            0.54960625330220       -3.91797203330053       -2.23992766397942
H            2.05135918425115       -3.05762312510787       -2.64517461545301
C            1.02750040257064       -4.17902310656801        0.33914195640066
H            1.02024839395680       -3.75263217128572        1.33800689560895
H            0.00418514185837       -4.40789890000386        0.05302252825572
H            1.61713727344086       -5.09191450471796        0.35959447200233
C            3.04159282461121       -3.00539227163727       -0.18831099488129
H            3.51205112746907       -2.28490808906630       -0.85335940927671
H            3.05145689318712       -2.61972090865001        0.83739498308932
H            3.57963389209494       -3.95011527981513       -0.20439263167212
C            2.38460538954052        2.98146001831753        0.77609787307214
H            2.72927886180656        3.90932351077009        1.22887743826429
H            2.89258546779126        2.14088581362387        1.25102762321797
H            2.63780228168070        2.98582922580715       -0.28237702178771
C            0.25186864063527        3.95641033941189        0.26917958703359
H            0.45474473072097        3.92083828460118       -0.79981949941522
H           -0.82247617994833        3.88214511092879        0.42720991214686
H            0.60417489936985        4.90606408899564        0.66888778259128
C            0.62388390841455        2.89034717634403        2.38685590334751
H           -0.45138248748280        2.89073379911720        2.55193514179648
H            1.05154682921405        2.01412480479878        2.87220883055450
H            1.04589337854059        3.79012308126314        2.82969647635808
N            1.64072225541081       -3.21802274845326       -0.58717451771931
N            0.93029401177217        2.84566665419330        0.94862554735461
O           -1.65645756778144       -5.24933274153468        1.21294612719542
H           -2.53602923768894       -5.41382162654167        1.55368478684489
H           -1.11114046495324       -5.04621450586662        2.01076475619313
O            2.64809654798056       -4.57961266101207        3.20615513980373
H            3.14466605147759       -4.56419698168471        4.02411588193027
H            2.50531937564659       -3.58362601989231        2.97379514731582
O            3.22525852899682        0.26078588516086       -1.05802867967527
H            3.31869042352519        0.21999058739483       -0.06790681708849
H            4.09989879358512        0.48490345159262       -1.37805749546353
O           -0.82513256559236        0.37971979276544        4.06842118917693
H           -1.16175907231611       -0.51142949837570        4.20400911095749
H            0.01340404086503        0.19915936615479        3.56648625786428
O           -0.18629306032830       -4.62795268454330        3.38543855253315
H           -0.09863165601475       -3.63867442859758        3.35226729643160
H            0.73307779416165       -4.92855690387667        3.38226818766772
O           -2.13765970585645        2.72864261090663        3.82977459031846
H           -2.59746155507640        2.91424442015460        4.64851824818579
H           -1.70729525016923        1.85765528316182        3.96620235059408
O            3.66714406701663       -5.81748034387612        1.03697557655278
H            3.91014553185028       -6.68714207051517        1.35538216134290
H            3.32422674680585       -5.33668559247320        1.82635657097304
O            3.59011474444263        0.28951765779087        1.56724920924569
H            4.13953561656202       -0.44009143963344        1.86176179130249
H            2.69235182053146        0.07844952929846        2.04946656466964
C            1.32511543039084       -1.48316874427304        2.81185150069923
O            0.24249205332584       -2.03634443645729        3.11065986527674
O            1.35553816100934       -0.18700832402242        2.65302331736791
O            2.40146555256345       -2.12883568527855        2.58190039679591
