101
 energy: -141.131103734558 gnorm: 0.000596878536 xtb: 6.5.0 (unknown)
C           -3.46758952280559       -4.18904465383312        2.39771547803498
C           -4.27096894232770       -2.90651992899361        2.22179032860490
H           -4.05185003752312       -5.05238291407791        2.08718169425804
H           -2.55795281064091       -4.15476026984982        1.80254500147004
H           -3.18637353657129       -4.31520583117017        3.44045793773431
C           -3.51077839975129       -1.67816649454394        2.74938256543932
H           -4.50718837163157       -2.76471037869646        1.16530083573701
H           -5.21490460088469       -2.99806981856720        2.76402581297739
C           -4.40457507656443       -0.43169269358129        2.66970629444214
H           -3.26744867034184       -1.86189723402776        3.80048506510075
H           -4.56497008348584       -0.15782519051433        1.62711067685153
H           -5.38055125368410       -0.69055055159896        3.08979790888610
C           -3.87020182422544        0.78268210884050        3.44485898765174
C           -4.93120466824263        1.89615869025357        3.45403264301401
H           -3.69172892640662        0.47248645670844        4.48099606346566
H           -5.15096718734996        2.18980206589326        2.42626454968999
H           -5.85216085235917        1.50393575130767        3.89252923351516
C           -4.47976657533352        3.12193904071358        4.23838713653886
H           -5.27277526985815        3.86574239013335        4.26859310133160
H           -4.22495053394148        2.85046800119902        5.26083990424414
H           -3.60499447903429        3.56931509415578        3.77276299614566
C           -2.57594473093004        1.30785992742200        2.88092716433248
C           -1.45579685615646        1.44160872367859        3.69046388076118
C           -2.46883476361532        1.67639972261392        1.54615805656346
C           -0.25933237877103        1.91050835151634        3.17960965111661
H           -1.51526436515868        1.16386894878624        4.73330895651021
C           -1.26668905153892        2.10253640088343        1.02210074918475
H           -3.32355166128680        1.60818281808175        0.89231407369658
C           -0.14662711938361        2.23443372631811        1.83350163593863
H            0.60119578818747        1.99432583791237        3.83007140318053
H           -1.18759063480515        2.30673417081866       -0.03212567531026
C           -2.21462828978915       -1.51769090230651        1.99916246661416
C           -1.00702475490142       -1.74323853899926        2.64663426812020
C           -2.18183264521181       -1.15601677427426        0.65803089055030
C            0.19411519733508       -1.58696711958185        1.98171308434303
H           -1.01339865178522       -2.03291796890837        3.68666429980081
C           -0.98254965699486       -0.95391217717324        0.00250964903029
H           -3.10212495639144       -0.99284877072934        0.11839101065051
C            0.22597428556867       -1.17279572850640        0.65485127717123
H            1.12164299835148       -1.75690861038513        2.51122094206750
H           -0.99148562800862       -0.58293453157615       -1.01027531274026
C            1.54176703546833       -0.88062592305198       -0.00582425115144
H            1.48830181333353        0.07491309523153       -0.54185369748460
H            2.31637855621664       -0.78492131149765        0.75822248642680
C            1.17468865282853        2.61378011470794        1.23544809015504
H            1.98980241025637        2.24924750305334        1.86415226709462
H            1.27250859279890        2.15253513126669        0.24227359470826
C            3.33281529523376       -1.44143867558391       -1.48540565459159
H            3.69933036475006       -2.12864113717508       -2.24449759265479
H            3.23624571359877       -0.45318324165459       -1.93205404501273
H            4.03940957079863       -1.37887050835678       -0.66093511567941
C            1.10088986036237       -1.97104536647410       -2.15056209451283
H            0.15568407860842       -2.41218144316187       -1.84606182002573
H            0.92651499341148       -0.96423642607533       -2.55706795093388
H            1.55630392556108       -2.57823940707557       -2.93007209675369
C            2.14105328010160       -3.20553365680645       -0.37314813709660
H            2.86024378526654       -3.16353026458455        0.44350209924828
H            1.17625697896023       -3.51954400172943        0.02342641985233
H            2.48150001985428       -3.92953977694157       -1.11145973170476
C            1.41568118039303        4.79271300770543        2.28237483363344
H            1.56556770309334        5.85711383915970        2.10865027588349
H            0.46178523776095        4.64663671942364        2.78726836222133
H            2.21818734949196        4.41818616250529        2.91677963784872
C            2.69857675183177        4.19803604221332        0.32008091827175
H            3.49495942900987        3.77118133656924        0.92701985722497
H            2.64738760695595        3.63681950530848       -0.61659688840538
H            2.91544824788277        5.24243792150696        0.10823003869935
C            0.36220583800430        4.62969214836958        0.12687369120074
H            0.28714182141111        4.00224849181814       -0.77323177584537
H           -0.60332097861171        4.64385831642669        0.62579374732646
H            0.62701918662069        5.64215958878837       -0.16697051396233
N            2.01625592167579       -1.88541330619302       -1.00076910715624
N            1.40230772941677        4.07202500609833        1.00538437795133
O            4.06509119363385        1.19572824668104        0.35559285640246
H            3.30035330814442        1.37216316731068       -0.21890987940845
H            4.80548033201553        1.28381860393909       -0.25231193369374
O           -2.33783980743376       -2.83380703631988        5.87125411435053
H           -3.14547552814544       -2.77049125191555        6.38551982815167
H           -1.71747036252390       -3.35873446357467        6.38147620313438
O            3.22552997984596       -2.57837231901056       -4.36829332114446
H            3.64739734936263       -2.81886609432145       -5.19331355434633
H            3.09044699952611       -1.60034801304107       -4.41456990455142
O           -0.28868067563977        4.67952345914623       -3.68423980979452
H           -0.21506075109442        4.33932096608213       -4.57671526492637
H           -0.05771871591054        3.91450265760004       -3.10534200080257
O           -2.40003845861630        3.60067751596527       -2.01106088389446
H           -1.59473376376993        3.04105116903735       -2.01335998742245
H           -2.15336521188849        4.31442823701025       -2.61159733255119
O           -2.72580091162708        4.75353490832569        0.42427889342571
H           -3.67312096953479        4.81919005647591        0.54731445021388
H           -2.60785483084817        4.32378310559099       -0.45486334816823
O            4.43836242876776        1.52654616686086       -2.58165945639837
H            3.53920205359653        1.70203936610810       -2.22224104070779
H            4.25958977565344        1.07821541571783       -3.41696797970646
O            2.88260745513973        0.08413431143160       -4.50448574868179
H            2.64764911806360        0.39030891930316       -5.38053535935630
H            2.10050857142579        0.40515881165791       -3.91442845797639
C            0.99493137669747        1.74045314955484       -2.23530313534660
O            2.01563104286112        1.71097744863193       -1.44008735172047
O            0.88620520373434        0.86895827627011       -3.14829129804727
O            0.10293841629681        2.62027373548947       -2.03739116474285
