101
 energy: -141.095090409969 gnorm: 0.000359086733 xtb: 6.5.0 (unknown)
C           -2.91043964711040       -4.05388315844445        1.09697778918866
C           -3.53299047929261       -3.13302484510602        0.05477581220954
H           -3.25881896010418       -5.07507795292537        0.95981672033050
H           -1.82611960778711       -4.04405233065074        1.01566917524721
H           -3.17956568517113       -3.73079243984898        2.10010995908762
C           -3.08816407258848       -1.67200168729185        0.23423635836112
H           -3.25828102841808       -3.47785299822443       -0.94396650438630
H           -4.62171128226972       -3.18580998085883        0.13821684873883
C           -3.79180511270762       -0.77119713511812       -0.79430290757694
H           -3.39329020407544       -1.35237696893412        1.23707469198097
H           -3.29547393508084       -0.86180172055205       -1.75986619103441
H           -4.82547727472563       -1.11692517282932       -0.89924461015431
C           -3.83201671037161        0.71086498888112       -0.39006753510771
C           -4.62503791324424        1.51656868876657       -1.42976872346512
H           -4.35484942061181        0.79005885890206        0.57071343333738
H           -4.13064852687390        1.43244765712833       -2.39854903448848
H           -5.62949159027580        1.09064543579473       -1.51472402068490
C           -4.74234312012243        2.98666008531216       -1.04663470021813
H           -5.32072678551538        3.53118141600511       -1.78990886294493
H           -5.23537952388386        3.09300534414181       -0.08258088572029
H           -3.75586421450695        3.43854976404652       -0.97716431314895
C           -2.44224822001726        1.26550656219081       -0.21840981702528
C           -2.00899499612693        1.69946252736211        1.02762638660433
C           -1.55268814530067        1.31743173054913       -1.28464262942063
C           -0.71093401849439        2.13140934797973        1.22475416269975
H           -2.68779210608544        1.66624142961855        1.86852964384340
C           -0.26501148469379        1.78306401603121       -1.09894032997140
H           -1.85386291735556        0.97051701916097       -2.26065577298421
C            0.17795616782139        2.18665340476876        0.15617266652443
H           -0.37275264114005        2.38135516529884        2.21915090266791
H            0.41859108432649        1.79904635553415       -1.93627422400718
C           -1.58654631112245       -1.56805436474585        0.14164704794972
C           -0.83906796580584       -1.11725849287335        1.22214652368804
C           -0.91134555607659       -1.92943381553099       -1.01752832171198
C            0.53476568837808       -0.99629017508913        1.14245315993812
H           -1.33959393038320       -0.83431011960878        2.13588637572829
C            0.46635815327902       -1.84862200645860       -1.08773925340538
H           -1.46019158641003       -2.27207654434819       -1.88154250344237
C            1.21036065047115       -1.38062816668471       -0.01068874919405
H            1.08380532591889       -0.58795156602733        1.97638175549249
H            0.96678432615011       -2.13564763815255       -2.00253289837409
C            2.70151095241703       -1.25645269691471       -0.10511179304970
H            3.00382638210201       -1.19951892384947       -1.15326487191908
H            3.05358756357194       -0.34295453319241        0.40482356518035
C            1.60803152328394        2.58057847257671        0.36194678222805
H            1.99276926658488        2.16451249273656        1.30545571497501
H            2.22547700919003        2.19856702439877       -0.45242241034572
C            4.89538589387839       -2.02917794855111        0.45514101868733
H            5.47883071138167       -2.76980119357698        0.99558192435705
H            5.22044196391212       -1.97754753547427       -0.58189023533857
H            5.02233540473873       -1.04157499430119        0.92487939235638
C            3.22148787166688       -3.63523976033241       -0.19440038561183
H            2.16151107374471       -3.88366195366214       -0.15684634702983
H            3.52654487961613       -3.54309614615968       -1.23610389418380
H            3.79563176267209       -4.43260068876088        0.27465900648914
C            3.09601046537075       -2.54796748377082        1.93439618553918
H            3.26880832057868       -1.60300602086655        2.47875598698005
H            2.05164123874753       -2.83753480015237        2.01802580308233
H            3.72576468071855       -3.31588550950059        2.37641304586294
C            3.29803737655293        4.22392158796381        0.75022849508883
H            3.53030710535196        5.27443033016732        0.90485731682624
H            3.53071820230108        3.62997083390164        1.64833607903419
H            3.89196817457923        3.81582722806280       -0.06701374888411
C            1.54186371118237        4.68717118594768       -0.83217352423016
H            2.16824955347706        4.26199279165394       -1.61449687331630
H            0.49574257048842        4.50989310817545       -1.07959512161979
H            1.72259880244992        5.75991303404851       -0.77578905272911
C            1.07583281857160        4.65937781172683        1.52691052282036
H            0.01574835830139        4.61075231963803        1.28663416529600
H            1.25178139659964        4.12010135533782        2.45980885556315
H            1.36715734574375        5.70083241856537        1.65284867786959
N            3.46574387563440       -2.37736361959137        0.52063603681288
N            1.86666763656454        4.05024665782110        0.44935513639124
O            5.79868453819860       -3.88742515363353        2.84849153376888
H            6.55443232879442       -4.30344270570895        3.26359976968051
H            5.78328859725069       -2.96031760464401        3.20731763945118
O            1.10184964137295        2.65578388409800        3.94459651548457
H            1.16612957375972        2.35908634596078        4.85212840544159
H            1.97275177260051        2.35202592744315        3.53202238613787
O            4.39186710754413        1.95703026818712       -0.91929790933357
H            4.34542754573160        1.53310651463329        0.00807969658546
H            5.28534096732351        1.76709164550970       -1.20543056207906
O            3.25686514529941       -5.83350110040113       -7.67110813867674
H            4.16446850674409       -5.64414925776946       -7.42812344927371
H            3.30186922017828       -6.35344779708873       -8.48730908016065
O           -5.39830523782084       -0.96270024267746       -4.02067932512238
H           -5.78891796712321       -0.13502986310428       -3.72948197941932
H           -5.41432413560831       -1.56166217634878       -3.26991344115190
O            5.78483339938750       -1.41927452529380        3.81561937580647
H            5.78113288094601       -1.35704512372391        4.77122569469359
H            4.99834719126011       -0.83182523836860        3.53761346243335
O           -2.67590504780807       -0.32737284617539       -4.10459841483743
H           -2.21868211552799       -0.54490648397638       -4.91780995923377
H           -3.60626378592330       -0.57103401939552       -4.23664191521857
O            3.18347451947373       -7.35825399216843      -10.06724169178187
H            2.69255313956073       -8.15921922621044       -9.87001734272217
H            2.66844793844434       -6.85578460817218      -10.70258587120337
C            3.77947972128333        0.93505007862260        2.46159281271713
O            3.26916209909731        2.07865280952303        2.69632397729559
O            4.30681254968600        0.70294147614262        1.31273948368220
O            3.71444002802176       -0.00216102643612        3.31600445882211
