101
 energy: -141.094634653405 gnorm: 0.000193996733 xtb: 6.5.0 (unknown)
C           -2.73268373547779       -4.74734226167039        2.08285729338474
C           -3.58960800797149       -3.95734862743862        1.10165038979371
H           -3.06439508324588       -5.78127625459334        2.12723044991183
H           -1.68891217619955       -4.72923037232485        1.77728722508113
H           -2.80173684341824       -4.31614282041424        3.07951576306070
C           -3.17811385308073       -2.47834082599433        1.03463746009175
H           -3.51234710887183       -4.40689336448632        0.11036243836715
H           -4.63601154087882       -4.01898429473808        1.40928120177178
C           -4.10325113627688       -1.70936982337112        0.07600250418636
H           -3.30088754160757       -2.05385166719313        2.03764903440156
H           -3.87111361109860       -1.98378074134072       -0.95395439069922
H           -5.13189617930087       -2.02102770484769        0.27695818135634
C           -4.03291652756632       -0.18112150263496        0.23163067898951
C           -5.22364528891675        0.47933632473217       -0.48155710761841
H           -4.11566358390483        0.05286478357185        1.29919438746532
H           -5.18202105429383        0.25499315876916       -1.54912459344930
H           -6.15072532669371        0.05307219875225       -0.09116960746672
C           -5.24414421503494        1.98972221518109       -0.28011729069013
H           -6.10224359509064        2.43008509241528       -0.78298843910196
H           -5.30533120785092        2.23168564689825        0.77853035170303
H           -4.33859144172633        2.44075732086517       -0.67985525317662
C           -2.72957906587122        0.38500524768857       -0.27203888541742
C           -1.84747294048228        1.00832678065897        0.60133050931441
C           -2.36564524165384        0.29515254961370       -1.60964773914244
C           -0.62692495257892        1.49163168098418        0.17092943269596
H           -2.10597048288642        1.09133750721902        1.64677315958600
C           -1.16607186302537        0.81869312171775       -2.05411616467067
H           -3.02002204496693       -0.19541568696825       -2.31621875341714
C           -0.27584278785163        1.42500724349972       -1.17357475467471
H            0.06930477320768        1.88563667279508        0.89321593891575
H           -0.89266372793190        0.71878287598665       -3.09503028850824
C           -1.73199897714062       -2.33540112906704        0.63715048400840
C           -0.83492601784973       -1.66389806971165        1.45859687783876
C           -1.26274059543229       -2.84085122027413       -0.56832239742599
C            0.46958933344974       -1.43846289123823        1.06603268490262
H           -1.17287508620653       -1.27628738919774        2.40831507708508
C            0.05360935037356       -2.65975649715193       -0.94660052271898
H           -1.93054496268322       -3.37450659612537       -1.22880654342154
C            0.93493322368354       -1.94103912655040       -0.14576975800000
H            1.11835356688979       -0.83293474696090        1.68073759826645
H            0.39075490167118       -3.05377877406178       -1.89665521832553
C            2.30281500692149       -1.60387995954328       -0.64290262044066
H            2.35508244193574       -1.76862781957881       -1.72165277135721
H            2.52981208049827       -0.52284703324070       -0.43382442969751
C            1.06364316668479        1.88023339118704       -1.66623149391048
H            1.86642130570474        1.47230884922612       -1.01113573241341
H            1.22190168363989        1.49397034578046       -2.67497924859815
C            4.67435255711777       -1.67589428887001       -0.51127309196682
H            5.55049743228664       -2.08408144015292       -0.01367628747038
H            4.77339816355572       -1.80165311954910       -1.58789061468925
H            4.57592661120472       -0.60181618938571       -0.28896173144856
C            3.42365991715631       -3.75123275088423       -0.43447975740480
H            2.48353803922974       -4.19986535935788       -0.11532587548042
H            3.50473779341547       -3.83657782489046       -1.51772395752037
H            4.25111979040111       -4.29005907021582        0.02556874324880
C            3.42645421675779       -2.23905656757983        1.43623908331160
H            3.37783150914083       -1.14842469032746        1.72499262349410
H            2.55786969890414       -2.75761963989870        1.83268753876848
H            4.32972455446378       -2.68219730964176        1.84958435258392
C            2.71716586582332        3.54304865634187       -2.06590918244826
H            2.97238821909639        4.59834359866103       -2.00362246589381
H            3.32648449880056        2.98660002058894       -1.35189527268317
H            2.90535275256548        3.17113213746485       -3.07063910457079
C            0.44642702025567        3.97088679953360       -2.73853553296902
H            0.66847217627847        3.54531616700813       -3.71379800065287
H           -0.60071752943640        3.79403808824491       -2.49661216849307
H            0.63521841638070        5.04275350929035       -2.76281336390775
C            1.04879777752527        4.00139185502396       -0.42335896003891
H           -0.00617485140740        3.94758844061165       -0.16926847329326
H            1.65743754615620        3.49528970078181        0.34526162288767
H            1.36129018865148        5.04156635881275       -0.47784702250600
N            3.45119185873723       -2.33906513269962       -0.03010071230043
N            1.29863042140398        3.35180416526521       -1.71839681888709
O            0.73429172801825        1.00403627142953       -5.08622073852606
H            1.41631942927218        1.69838007114410       -5.20004214741174
H            0.85553482541820        0.38345196946989       -5.80600826355812
O            4.28961242888360        4.71086286294508        0.93510570897898
H            3.82822673038749        3.82572432824477        0.93882086298221
H            4.21209433049348        4.96931157324913        1.85919822229158
O           -4.14632214610439       -7.81017943142091        2.84424285543142
H           -4.34848194500133       -7.46397883004369        3.71605390681296
H           -4.52385485192863       -8.69053155095842        2.79330910548203
O            3.08916054535623        6.37483126825260       -0.74509270732121
H            3.53330799820355        5.74213205474473       -0.11729248822502
H            3.51847199589268        7.21614709239465       -0.59003796650968
O            3.23334991753557        3.73494692142663        3.62482441254614
H            3.03056674375285        3.24373190557395        2.78241000474759
H            3.53962725711741        3.04525597930246        4.21506088904122
O           -1.42626372203247        2.64482649812554       -5.32733057678266
H           -2.05283202707783        2.49310351170226       -4.61824174238036
H           -0.72387199238138        1.96989316141595       -5.22520032730341
O            2.35788803250236        3.13238015027400       -5.47829759134859
H            3.13076954033285        3.23881830157102       -6.03394453386158
H            1.67392327745267        3.74022933880996       -5.83146905368570
O            0.23931454884464        4.56957357701933       -6.32249516541507
H           -0.05940402253603        5.44004168826780       -6.05642855735800
H           -0.46695005080040        3.94360944149546       -6.07579671045055
C            3.13028671918390        1.32468670121592        1.08701774859068
O            3.16636285940865        0.49664053439152        2.02664569607732
O            3.30535701605787        0.94763549950158       -0.14093292194538
O            2.87443159950658        2.56561903179820        1.28992686428800
