101
 energy: -141.141202787445 gnorm: 0.000488765707 xtb: 6.5.0 (unknown)
C           -2.91219746181069       -5.32792947757703        0.49896153061110
C           -3.37765054275367       -4.35822413036926       -0.58044211900664
H           -3.10331466407470       -6.35608771913257        0.19918449334633
H           -1.84583751036500       -5.21252320194884        0.68084672656704
H           -3.43898144941204       -5.13612055286413        1.43071351500330
C           -3.16076576475338       -2.89758400185683       -0.16321608792732
H           -2.84566942487251       -4.56485564420220       -1.51140825460633
H           -4.44203593868384       -4.51498093513801       -0.76948761724443
C           -3.69830738242987       -1.94059329033441       -1.24120323780538
H           -3.73121817661143       -2.72197196252977        0.75455050394005
H           -3.08670330791012       -2.02295985249909       -2.14143666049766
H           -4.71080856407860       -2.26123382314392       -1.49940043932207
C           -3.76120917960970       -0.47662101394089       -0.77478817021071
C           -4.74896088162798        0.32829688583597       -1.63504087700149
H           -4.13686619290908       -0.46915668942627        0.25287853888352
H           -4.39464035562939        0.36407511192677       -2.66780707919224
H           -5.71576809952396       -0.18048014493626       -1.63339767061475
C           -4.93004575339164        1.74585055923742       -1.10563722373334
H           -5.65934798321090        2.28714641014828       -1.70442545943134
H           -5.27735924778297        1.72153618486620       -0.07596423636295
H           -3.98901865291681        2.28983871155136       -1.12898718143492
C           -2.41285866739628        0.19663698878395       -0.78254609206723
C           -1.90441017552792        0.75024705749539        0.38558600074648
C           -1.65655275049779        0.30531059427567       -1.94267990459147
C           -0.66311396096606        1.35244440340979        0.41134333176492
H           -2.48563216554638        0.69884430112229        1.28989023201876
C           -0.42707931012474        0.93765310299957       -1.92985798478818
H           -2.02364358191089       -0.10626250257429       -2.87207241460474
C            0.08991846045121        1.46370479766579       -0.75148388909144
H           -0.26909647712752        1.72348920003863        1.34293568524023
H            0.14586312788040        1.00249762763454       -2.84650243488317
C           -1.71409059574803       -2.60146180642714        0.12857162297654
C           -1.36492979603652       -1.99367354645969        1.32708452770324
C           -0.70893321236535       -2.85645479928984       -0.79525218898709
C           -0.07021562017807       -1.57662728250982        1.56963450113747
H           -2.13340999169705       -1.79598637759748        2.05805829016241
C            0.59619798404147       -2.48345211831102       -0.53694214082473
H           -0.94137040011259       -3.33309277837402       -1.73636872306172
C            0.93264290979698       -1.81520696167398        0.63585666145777
H            0.13540999351988       -1.02421188129098        2.47196020844590
H            1.35912847403452       -2.68044636007996       -1.27928555806025
C            2.31862560605409       -1.26402494663046        0.79892141738763
H            2.82927622565799       -1.29504064374660       -0.16710086733592
H            2.28012317632067       -0.21172527193187        1.12411961350075
C            1.46005802865937        2.07082221287922       -0.71561354959314
H            1.98404245136657        1.77988100214986        0.21849782320165
H            2.04650523800460        1.71167868676473       -1.56550450777348
C            4.48657270368096       -1.21019195622029        1.78783256165816
H            5.11947616693179       -1.57736553707881        2.59215905411694
H            4.99294389076015       -1.32777745014612        0.83192295344738
H            4.26848029020700       -0.14675419711365        1.94575028086066
C            3.42511314989371       -3.34578152029713        1.40452221970133
H            2.47068100850303       -3.87057601080658        1.38480829593859
H            3.87964140904528       -3.40507054249480        0.41639756457325
H            4.08473028831982       -3.81997234541556        2.12934877874795
C            2.64592664404286       -1.88723833302893        3.13860509860787
H            2.47670568367113       -0.83436897882105        3.40152518292754
H            1.70971615713161       -2.43572168467139        3.18384635817254
H            3.35694208928193       -2.31322835483419        3.84241382159158
C            2.90568976699148        3.95363064890381       -0.53695069260286
H            2.99738139780239        5.03716983065866       -0.50019197328235
H            3.23366874069027        3.52825934898405        0.41456673308932
H            3.53788992993162        3.56327058883517       -1.33290078508261
C            1.01685141836623        4.05110621166093       -2.05161629958358
H            1.63383546192191        3.66064987653495       -2.86043564460055
H           -0.01005425987129        3.71739569247297       -2.19402003047859
H            1.04318884504414        5.13935758760870       -2.07876325531657
C            0.69956413300904        4.15689518357572        0.32536429089697
H           -0.35162318317500        3.89257928229127        0.23507858484574
H            1.08435032725843        3.77981596649881        1.28867348192873
H            0.79578840131800        5.23983513524864        0.30336881599773
N            3.20975473832765       -1.94522073703887        1.78254664679027
N            1.50375989927349        3.56587538981114       -0.75521545056965
O           -3.69975685337525        1.84638138728103        2.94058541178299
H           -4.41093793288610        2.34273823482900        3.34725398708817
H           -2.96885377275661        1.81331684739338        3.62692543791720
O           -1.82074854822399        1.77820697274306        4.74220827981214
H           -1.29777782769378        2.57014902691741        4.49782773488391
H           -1.18047312932277        1.04299707789321        4.63554938739810
O           -3.85714759015110       -0.90678448553734        3.22577361141821
H           -3.90999324746517        0.04002525609185        3.00244009207387
H           -3.35596945218108       -0.93918694819686        4.04363408032334
O            4.52629207673585        0.45768326390916        4.96944711880229
H            4.34998640923061        0.82592287593431        5.83558013765699
H            3.72021439473930        0.70837372792807        4.42278602570386
O            5.37591405195523       -2.06690082332983        4.69858852537094
H            6.11567418687351       -2.15543464974363        5.29992271823585
H            5.06086019624960       -1.13708175651315        4.80517844813822
O           -2.08781717351776        3.88638168958584        1.65544948332105
H           -1.46661171287100        3.93581332523327        2.40131766182612
H           -2.69492183696111        3.17121112993110        1.89136399596205
O           -0.29969072046120        3.79899141757447        3.84617633855578
H            0.55106490509993        3.38211366183602        3.45979783913436
H            0.00766504760631        4.51975401645304        4.39479542547039
O            0.17569981981875       -0.03277038207052        4.58258667041125
H            0.39560827359256       -0.21358754837889        5.49685514919680
H            0.96266029431407        0.48975577475635        4.23360507613456
C            2.38517641142114        1.83450862107773        2.69990588707974
O            2.34005489896891        1.05944758417508        3.72887058493358
O            2.99912927084489        1.44928779875918        1.65512859191935
O            1.80066517124745        2.95975116752152        2.71491798853161
