101
 energy: -141.149241264652 gnorm: 0.000205385318 xtb: 6.5.0 (unknown)
C           -2.06696184478531       -4.76349421241970        2.84649640501769
C           -3.25157180621634       -3.90086501009305        2.42840023058807
H           -2.34017654616581       -5.81599405444079        2.83191115846814
H           -1.22784856785434       -4.61525404925592        2.17024726862093
H           -1.74403984848175       -4.50707195066129        3.85344328043881
C           -2.92409274098385       -2.39845048173610        2.47233440640943
H           -3.56059878998474       -4.17392631242350        1.41819348150403
H           -4.09097326609757       -4.09928255865679        3.09853233777012
C           -4.17881625851712       -1.57743859047297        2.13376445054159
H           -2.62151289714431       -2.15195304026729        3.49714948159320
H           -4.37319362791453       -1.62947104122998        1.06301819287270
H           -5.03291905879991       -2.02820687749961        2.64586589239464
C           -4.09055168149450       -0.10623935593674        2.56836599828405
C           -5.41357040575402        0.61511035586722        2.27151896736123
H           -3.92625919685502       -0.07956232821844        3.65254387811010
H           -5.59070490888385        0.61695457211664        1.19515010918271
H           -6.23102652067243        0.06535434934076        2.74371894029784
C           -5.40793417936706        2.04988263635554        2.78441298183775
H           -6.35914789954444        2.53255291236574        2.57351326158555
H           -5.24305659169524        2.07246054906211        3.85990341388642
H           -4.61726740235630        2.62197335858076        2.30402625180995
C           -2.93751174492999        0.58744279740877        1.89437756485043
C           -1.91481509522473        1.15264931325699        2.64470323114319
C           -2.84925596975993        0.64231647396291        0.50856331016469
C           -0.80427773011136        1.70421219132323        2.03203569397341
H           -1.97315493401714        1.13873978852943        3.72431329168922
C           -1.74057438032164        1.18237567595420       -0.10840073404650
H           -3.62884099958728        0.23061769309233       -0.11168346397381
C           -0.69731300908684        1.70335789538087        0.64746813487309
H           -0.00353607581934        2.10324065423177        2.64072788552166
H           -1.67240542152058        1.16368642144434       -1.18463136302780
C           -1.76473669737951       -2.10306632097018        1.55366007443036
C           -0.54944583499850       -1.67094155543178        2.06915875647307
C           -1.86016547076642       -2.28783324845210        0.17895552126505
C            0.53056556995724       -1.42691922485166        1.24158001658461
H           -0.44605888722692       -1.51597097567011        3.13376957100869
C           -0.78515968617741       -2.04289341261835       -0.65368058577412
H           -2.78894193322417       -2.61498359093379       -0.26146173027540
C            0.43196514984828       -1.61748660148958       -0.13230396267690
H            1.45862625942073       -1.07462798462568        1.67161302654748
H           -0.90364518097703       -2.16319864250076       -1.71763436178287
C            1.61336115628241       -1.36046780826755       -1.02606051963841
H            1.28346273322380       -0.92495567735074       -1.98318817168453
H            2.30225659580811       -0.65901460547275       -0.55059878552165
C            0.54504415631673        2.18527704407246       -0.04537972384426
H            1.41668491483020        2.04235543204125        0.59810618745453
H            0.67964115722260        1.59862382514056       -0.95524320398990
C            3.57262114899716       -2.21769003012257       -2.14498444838178
H            4.22140083025195       -3.08062379644817       -2.28082297260567
H            3.26817563873039       -1.84701049165532       -3.13460936557588
H            4.12107284328577       -1.42502711905435       -1.63907622992701
C            1.57429800869965       -3.54436240864279       -2.11363404129554
H            0.78966262041145       -3.95468361655836       -1.48166374806808
H            1.10032875850659       -3.03674316301452       -2.95754818635460
H            2.19794208089822       -4.35458197457127       -2.48598240522118
C            2.85447068481918       -3.23413264089065       -0.10461857886617
H            3.51290025294880       -2.55406517491009        0.43310837304996
H            2.00262092628326       -3.47677617594432        0.52877076210093
H            3.40050968724482       -4.14785473310720       -0.33440827325734
C            0.41723377892219        4.50255998148422        0.70278959322960
H            0.39032719999742        5.53598028910334        0.36166115862475
H           -0.49244932446340        4.28351901279617        1.25989712491793
H            1.27831823147937        4.36648101861659        1.35590127893622
C            1.77365120245455        3.89120585684821       -1.17945969497044
H            2.63136179393574        3.69369940069735       -0.54132097476478
H            1.82295845446877        3.24498108324038       -2.06070480207989
H            1.79550946956936        4.92740891908554       -1.50859114774048
C           -0.61659239892150        3.87153432224480       -1.36503867792158
H           -0.62165084981307        3.12756264896037       -2.17694952836182
H           -1.55274372070037        3.78610798037162       -0.81884499253864
H           -0.52281034251353        4.86978686680416       -1.78395304228064
N            2.39612123346879       -2.59634945079487       -1.34678091213447
N            0.51917627489859        3.61667872861696       -0.46191514993269
O            3.07823477569462       -0.90259390998346       -4.74647789969590
H            3.67002936191548       -0.16719284398603       -4.54695255655243
H            2.19744667922037       -0.56661289516027       -4.43458507031396
O            3.83796936986891        4.50036301297210       -3.36661107848145
H            3.97299969859112        3.54172580452573       -3.35389855176822
H            3.02795382744078        4.62929833936181       -3.87285933820049
O           -2.60507860842664       -0.36930402698425       -3.03613944897770
H           -1.95459940382370        0.35709277076790       -3.13627697879221
H           -2.13405875407351       -1.14380923148285       -3.36654564235884
O            0.76064959446640        6.39415963246139       -2.73427571112519
H            0.85696133601511        5.68939653452595       -3.41545596367756
H            1.24824413300881        7.14391068594329       -3.07683255080369
O           -0.51760143081568       -2.17398160683844       -3.98374500458316
H           -0.05084601418230       -1.29396052439635       -3.84169344703002
H           -0.62980355397471       -2.23738257952404       -4.93250794201445
O            1.09183400140757        4.42680402748473       -4.55217181667212
H            0.35621367636398        4.36281960683692       -5.16223774752407
H            1.18270420919665        3.49851613715835       -4.16594367945212
O            3.94411401970929        1.63873697195478       -3.72257360025227
H            4.19357128346434        1.88826170879104       -4.61346050300540
H            2.91294342309616        1.73873177237296       -3.69357241550005
O            4.17213512560798        0.74834354144643       -1.09019085780467
H            3.98349871702601        0.97404774574389       -2.01768363988318
H            4.90891727360564        1.31426460483588       -0.85391925262733
C            0.54897500568574        1.17464270367489       -3.45996688124342
O            0.88678955220691       -0.05045422749034       -3.58927556595188
O           -0.61486940543035        1.52155631308254       -3.16543013411938
O            1.47522175368039        2.07672847578227       -3.57267676565541
