101
 energy: -141.102709352413 gnorm: 0.000601063763 xtb: 6.5.0 (unknown)
C           -0.49588359020343       -4.62587610273043        1.09606619016481
C           -1.67341212154159       -4.41778899688304        0.15210735184211
H           -0.04896586593270       -5.60426958051472        0.93456960808183
H            0.26427353477289       -3.86756092382687        0.93135692123132
H           -0.82094184369919       -4.56404248179792        2.13242353829879
C           -2.38107742572095       -3.08098933050953        0.36939658429462
H           -1.33000781929912       -4.50266641750468       -0.88004388795130
H           -2.40632705172916       -5.21137428351766        0.32041905713945
C           -3.69634599747651       -2.95713373883065       -0.39136204602241
H           -2.60197359884306       -2.99106401318463        1.43892264685651
H           -3.55466428223612       -3.18988317291982       -1.44844124125091
H           -4.46357440456164       -3.62227596015197        0.00403995491994
C           -4.05168539797270       -1.48670053943515       -0.20117736900935
C           -5.24985876433849       -1.02947319718320       -1.03111317120792
H           -4.31584966550032       -1.34366407352683        0.85260031547014
H           -5.03592188369987       -1.10858760091466       -2.09771093509822
H           -6.07341742369633       -1.71663255139644       -0.81465389876362
C           -5.68801608458015        0.39226459726495       -0.70444866140916
H           -6.60764720613505        0.63196639867022       -1.23282026998817
H           -5.86798646157175        0.49962473843814        0.36254951886664
H           -4.93017815469984        1.11029585092439       -1.00031987857460
C           -2.71221158079461       -0.73887133056779       -0.43848618217528
C           -2.63475827570989        0.47494006457672        0.43455420476770
C           -2.54416765615954       -0.32085563088583       -1.86781750032452
C           -2.11217748723927        1.63381682664522        0.06709927196430
H           -3.08064231236730        0.39852845855347        1.41447297769247
C           -1.99673002325875        0.82205197414677       -2.24408539222360
H           -2.90944484431220       -1.00148139206226       -2.62180727494989
C           -1.47698557962135        1.85859694695510       -1.27793015448956
H           -2.15932853057022        2.47550629203697        0.73613327923518
H           -1.92148219684443        1.09832083725826       -3.28592256687403
C           -1.57936745622844       -1.81121418629686       -0.05020061261951
C           -0.76180276553443       -1.31087482641289        1.09622671850152
C           -0.71622929646474       -2.09657850462119       -1.23790253312959
C            0.55309689980854       -1.09814900516792        1.04478245876375
H           -1.29875250215568       -1.13174212509296        2.01617588759192
C            0.59798886539151       -1.88531536317106       -1.27899107129997
H           -1.21278403006605       -2.51600912386124       -2.09991912812857
C            1.34367376544380       -1.36374480494796       -0.14687371249610
H            1.08571123568962       -0.74776182493336        1.91957715404118
H            1.16537437208148       -2.12082375944344       -2.16865436626554
C            2.66800305559066       -1.16116765305474       -0.19416554604675
H            3.24335757219925       -1.39406897187263       -1.07124390971934
H            3.21633531377811       -0.80304020854104        0.65997633901672
C            0.06845728341053        1.66216497190129       -1.20213275888403
H            0.23119396634435        0.80416688205925       -0.54859659369902
H            0.42919163848897        1.41162627302687       -2.20196118665725
C            5.38074821743074       -4.31632642095168       -0.21289146112050
H            5.57415137082913       -5.37363098685540        0.02933149335305
H            5.64107826415066       -4.14779348210652       -1.25709293237244
H            6.02345746684240       -3.69547220357729        0.40986788539184
C            3.10860811498136       -4.68256856156300       -0.85948139723607
H            2.09157560712517       -4.32097817792014       -0.71829571457960
H            3.39529368025335       -4.52108693709330       -1.89789223679003
H            3.12910441295967       -5.76520680662621       -0.65622199250094
C            3.62718089926953       -4.07706705668660        1.39211061774983
H            4.29198792487041       -3.46926529422450        2.00421651725041
H            2.60740091274485       -3.72010291814346        1.52577444294964
H            3.68312389971609       -5.11963736996486        1.74376906585204
C            2.20651813789446        2.27912785946449       -0.29522504981494
H            2.84321946585843        3.11571680972804       -0.01110679814697
H            2.09476337894268        1.60734772421061        0.55331970131304
H            2.67265835228245        1.73078731586629       -1.11177064765888
C            1.11633906926761        3.79627948394445       -1.77341568284844
H            1.66360216147690        3.34278159129783       -2.59661251409287
H            0.16538718754801        4.17337252849125       -2.14068326393835
H            1.69072169103380        4.62698636416332       -1.36692353657277
C            0.28652252488430        3.46643696181543        0.45512390342809
H           -0.62534197638927        3.97359167593326        0.15221460347565
H            0.06691498480902        2.73434185241292        1.22877368356348
H            0.98282301721996        4.21011844303944        0.83782967091709
N            4.00064170923942       -3.93506520067541        0.00108800680908
N            0.89336049200644        2.80055680408085       -0.70825875735031
O           -2.63711921783743        5.73703048163308        1.06403812670001
H           -2.75982523447732        6.33147020236730        1.80617430084890
H           -3.24667705850408        6.09124314754725        0.34185542041241
O           -3.97586793365792        1.53742380679058        3.16153045823939
H           -4.11816563590673        2.26063041532262        2.51954412101505
H           -4.67218241510732        1.63344743317976        3.81235989866826
O           -0.79024405329847        6.16947473004085       -2.69709165217750
H           -1.60490856571124        5.60699413825444       -2.63024212983875
H           -1.06258587999655        6.94301576137439       -3.19240461092058
O           -4.38787315541500        3.56790843617000        1.35605575364522
H           -3.74947771809324        4.30296662779665        1.37688078074901
H           -4.28561272760844        3.17831886666934        0.47076678913515
O           -6.15017330073126        4.64138373295809       -0.62410873670193
H           -6.04497474672297        4.33019859214050        0.28339063759531
H           -5.55690372181522        4.07192446631947       -1.14388497073731
O           -4.24852980413870        6.56707107278850       -0.80015045706150
H           -3.82884372597871        6.10883352334869       -1.55279798544706
H           -5.08948897927439        6.07596245502391       -0.68613601658077
O           -0.27002573577009        6.74391905969896       -0.09330849297035
H           -0.42226691906772        6.59588075119094       -1.04988345768310
H           -1.05175998555733        6.37271206121800        0.34892459317247
O            2.21056291162964        5.86366556427982        0.33714378068927
H            1.31023641075759        6.25176140719881        0.20653036600742
H            2.77546751382160        6.60587594612464        0.55270909306313
C           -2.99577761463091        3.68600019404424       -1.85710831244510
O           -3.01553115092024        4.78548630845112       -2.41717066922267
O           -1.69451680396776        3.16259816361022       -1.79395600782766
O           -3.91485913736800        3.06291902382824       -1.34171318439248
