101
 energy: -141.110910551155 gnorm: 0.000226948606 xtb: 6.5.0 (unknown)
C           -0.83455644693737       -4.92126480714453       -0.63080533504957
C           -1.64905531015184       -4.31774250786783       -1.77671036505858
H           -0.65823373961311       -5.97607534851417       -0.82297892980493
H            0.12754196289360       -4.42308106219650       -0.55474318042133
H           -1.35762832523817       -4.82646474332138        0.31812206068867
C           -1.80976541499533       -2.82971638408605       -1.60594364509577
H           -1.11265697894536       -4.51713216350206       -2.70517948637900
H           -2.62715361636446       -4.80047008426621       -1.82819937924892
C           -2.99317593899893       -2.29626670085403       -1.28936098266443
H           -3.59278292673949       -1.02198794396430        3.81277985137875
H           -3.82309770145086       -2.98916417911368       -1.18158022633538
H           -4.65835330485333       -0.39154583701678        2.30307422764497
C           -3.42466167020049       -0.86097776196073       -1.05923591576509
C           -4.87215256203719       -0.68119713639350       -1.55365206013350
H           -3.43727942479744       -0.68385359242934        0.02451794820712
H           -4.90962444790029       -0.85628181355106       -2.63054474030118
H           -5.50952573076415       -1.42761204693164       -1.07243457315023
C           -5.40547576088204        0.71172787773782       -1.24295419200283
H           -6.44762684110851        0.79549304769552       -1.54325047026828
H           -5.33240100859933        0.91901136563195       -0.17767706618579
H           -4.83111255182359        1.46533172727302       -1.77657533541130
C           -2.51942248465472        0.17478461983690       -1.67218883865964
C           -1.92997165392572        1.16126042333496       -0.89162918768170
C           -2.22059598820470        0.14883072991517       -3.02788766903357
C           -0.90838088860228        1.94544335636542       -1.39640351448231
H           -2.21638467845571        1.26621759965344        0.14397741601181
C           -1.20986263424860        0.93958268106411       -3.53509442910658
H           -2.72448684244136       -0.55387522724802       -3.67554018504258
C           -0.46776001095143        1.77062140180751       -2.70188142495625
H           -0.40040138019253        2.64253435777296       -0.74678445879861
H           -0.94104807450226        0.85413072356379       -4.57855210362115
C           -0.58568126306267       -2.03453153972153       -1.82405073743403
C           -0.04547085856166       -1.25053135628020       -0.81151929073254
C            0.01724712540559       -1.99437333763274       -3.07973762902712
C            0.91668098614449       -0.30342259877398       -1.09865369682960
H           -0.42712696977976       -1.32006118798925        0.19461092829745
C            0.96701439561750       -1.03052254703974       -3.36833957053524
H           -0.32065262423982       -2.65927347163778       -3.85887665933325
C            1.35245484854556       -0.10445570187382       -2.40437949205934
H            1.25734886442914        0.34841490476955       -0.30957737647055
H            1.35437202821499       -0.94918934181443       -4.37379829578291
C            1.98974092300790        1.20198354049741       -2.77566830659201
H            2.66722472145722        1.08172752336832       -3.62177852683626
H            2.56403600269655        1.58241462300423       -1.92982423958038
C            0.88156716916896        2.25267208687599       -3.15157182791296
H            1.12835933695960        3.20818989824889       -2.68744124893486
H            0.87778979496762        2.38697885579093       -4.23396381691126
C            4.11293977082451       -4.09162365484385        1.26815598541290
H            4.53266236937323       -4.07779210749510        2.28496720925236
H            3.95641669037150       -5.12718239540442        0.97011743852659
H            4.83235115114797       -3.63905170545785        0.58722115706103
C            1.84469452380568       -3.99556542284094        2.02108137797123
H            0.92515471017743       -3.41844979630978        1.96828269223573
H            1.65226722652205       -5.00541636977530        1.66196298169943
H            2.15821118260227       -4.04960346433496        3.07301700763319
C            3.02381182556613       -1.97227828381811        1.51209167173860
H            3.73761245641381       -1.52889465344479        0.81846038871375
H            2.06905017436368       -1.46157621094241        1.41088200750843
H            3.39422436464688       -1.82846043939230        2.53696735045424
C            3.50367764154888        1.74472596903302        2.51164594314000
H            4.28797061915414        2.50185676619720        2.65789608196710
H            3.50038829777789        1.07740309933588        3.37244935195761
H            3.74225598792395        1.16271984242497        1.62241760396266
C            2.11451844409477        3.18058682033929        1.18136179473058
H            2.33273653061442        2.58333718068652        0.29687969975400
H            1.10555520339587        3.58107537047440        1.10463659587547
H            2.82640686451395        4.01671395131354        1.22474617429596
C            1.78810693122574        3.06492038059870        3.54764279744036
H            0.79587573208759        3.48121421384962        3.38636225086753
H            1.75587757576422        2.38205019332822        4.39591742295960
H            2.48021085802600        3.88541339972076        3.78317901051795
N            2.85306677853946       -3.37555194384598        1.17980021328312
N            2.18680958849829        2.33203188592761        2.35812513446400
O            1.13720308830154       -5.11785327361574       -3.47031794769106
H            1.85933115488402       -5.57295980214152       -3.90509822004828
H            1.54870933613774       -4.58994238787976       -2.76505275042247
O            0.16841672948213        0.47661804368040        2.05091538991920
H            0.93673235719031        1.07655954045452        2.16398812197000
H           -0.60549960458598        1.02113084114569        2.23603884313618
O           -0.60299005937168       -1.86662499484709        3.04347609345298
H           -0.96625694580509       -1.57179250612820        3.88209182744251
H           -0.23152545034391       -1.05432720261862        2.62924264394530
O           -1.12834695449577        3.86083844636888        1.59484673788703
H           -1.76063789889737        4.13744154175210        0.92897471666315
H           -1.56602049471336        3.16192893798969        2.09675738938120
O           13.37228578993282       -4.41697881178479       -7.63304559886888
H           12.44663318247199       -4.42684970095663       -7.38185699883477
H           13.44657041413106       -4.89342297474849       -8.46221456844854
O           -4.66471021656673       -2.04948240007165        2.91940758529386
H           -5.28031940597175       -2.73759320922521        3.17354224570295
H           -3.92546284900295       -2.50147601282563        2.41029912284423
O           -2.60693601374543       -3.03741093273327        1.71482337681329
H           -2.47929048317834       -2.87003959451010        0.77080064920891
H           -1.81687128193163       -2.67253140606492        2.17835794335793
O            2.44555492694229       -3.51014785114442       -1.58568207825275
H            2.05849931880822       -2.65797287996134       -1.80332782915436
H            2.53549868517584       -3.52631342519476       -0.61110744709893
C           -3.15357188521898        0.63909300868843        2.94048856328943
O           -4.19723492961001        0.46557562290824        2.14804173341803
O           -2.95777508151846       -0.26649738814200        3.88583323242761
O           -2.40477119090326        1.57074685800327        2.79933584550696
