101
 energy: -141.073875695023 gnorm: 0.000788848615 xtb: 6.5.0 (unknown)
C           -5.36435344680368       -3.54741508025671        0.14581258868625
C           -4.87853560818564       -2.34613579728410       -0.65661072354046
H           -6.19551692962086       -4.03256129710605       -0.36057577365380
H           -4.56289910127436       -4.27363315186965        0.26538522940300
H           -5.69817895467883       -3.23817614076375        1.13446036721775
C           -3.73294565775727       -1.60906090670814        0.04930450740005
H           -4.54946187993023       -2.67850892705098       -1.64206285270812
H           -5.70710166185257       -1.64921541996734       -0.80158697853898
C           -3.28886377074595       -0.38569899361942       -0.76844024740171
H           -4.09884813171978       -1.26686052822452        1.02439713188850
H           -2.85037627235346       -0.73675101996969       -1.70355983989803
H           -4.16049966382274        0.22578185821211       -1.01327722837400
C           -2.25647154271775        0.46667813929295       -0.01562154224770
C           -2.93801877004501        1.44458011938074        0.95098786223297
H           -1.61402716696492       -0.20900649121104        0.55530712618067
H           -3.07078146063180        2.41192095075405        0.46156527921436
H           -3.93300162411376        1.06201161574401        1.18974986146120
C           -2.17611713668299        1.63725003425012        2.25776143531866
H           -2.72881766574395        2.29896123902852        2.92184876741397
H           -2.03959760874647        0.68176118782900        2.76061354247205
H           -1.20179501698600        2.08043666630093        2.07015160843035
C           -1.31349800231044        1.19207513835436       -1.03054763003937
C           -0.27826227968632        1.99673367292463       -0.30172568064502
C           -2.12514483324556        2.05755817297681       -1.95067388908196
C           -0.24622634123766        3.32663977346170       -0.30666422511366
H            0.46723753198934        1.41755112620918        0.22192054720933
C           -2.08811698217666        3.38697480306326       -1.93028777170721
H           -2.75470749957215        1.52709367085197       -2.64829560398361
C           -1.19950528887699        4.12989567998944       -1.05216858052326
H            0.51093096448924        3.86338159518816        0.24748574497478
H           -2.71208055363612        3.96355652372809       -2.60005549617144
C           -2.54630545812965       -2.50928351808986        0.27293218999356
C           -2.04865129527868       -2.72864820471578        1.55120225477124
C           -1.88761013996254       -3.10113782435768       -0.79789842369421
C           -0.90186838118267       -3.47527482921681        1.75686723275576
H           -2.55274930842819       -2.29300430753028        2.40230992781234
C           -0.73601719723270       -3.83527639801639       -0.60025910599008
H           -2.25526659844759       -2.97815914890658       -1.80424640882318
C           -0.21007564756336       -4.00799683202986        0.67416791863813
H           -0.53712419443078       -3.60590460707844        2.76477377856539
H           -0.22933019152943       -4.25905520898744       -1.45228731545944
C            1.04210071850523       -4.82671329119292        0.83865203368497
H            0.91726624592445       -5.55480356574139        1.64154980579078
H            1.22308967668532       -5.35264990305681       -0.10123249515059
C           -1.21902299477558        5.46651024428921       -0.96839049195153
H           -0.52684996702599        6.00188111138112       -0.34090817228950
H           -1.92081288890553        6.05222765014564       -1.53873590511766
C            3.39354772688338       -5.03585449615476        1.17851126000011
H            4.33029945001601       -4.52699604291326        1.39823918364070
H            3.20075949282003       -5.77934167986020        1.95135072832007
H            3.48402138852435       -5.52967620170387        0.21276683153893
C            2.20820258277596       -3.41526960903889        2.46472719468908
H            1.47017962530585       -2.61457012579672        2.45502995034596
H            1.95058023193431       -4.15898534354702        3.21712457713534
H            3.17368308929045       -2.97873319875249        2.71303579088258
C            2.54964111214333       -3.05671218515503        0.10923809956492
H            2.63753563363973       -3.53803710087706       -0.86224090314388
H            1.73016383917454       -2.33181334209841        0.05918234329275
H            3.47103496462994       -2.52481698086758        0.33435788066908
C            2.65562463053283        5.99532444070858        0.17394154127271
H            3.67375127832182        6.41015499671389        0.09973995290001
H            2.55471922029701        5.49988227996721        1.13918721150616
H            2.52334101677520        5.25666523083791       -0.61536938053862
C            1.68225092245442        7.64837895959612       -1.24877251047909
H            1.54968422256137        6.89262843177851       -2.02150397777198
H            0.87011158068408        8.37000051964991       -1.32567268341515
H            2.63526027554908        8.17198704206808       -1.42574388687444
C            1.71877288793325        7.98160849456066        1.11944803168797
H            0.90322939907153        8.69699373194089        1.02091490020439
H            1.61869143324186        7.47047550538640        2.07632690527584
H            2.67219277998544        8.53414437557038        1.11501080721094
N            2.29002780308382       -4.06360475293457        1.14779697478433
N            1.62967914902812        7.00969060959685        0.05028088604473
O            1.44382908511900       -6.33487418754694        3.72192323204577
H            1.64635402762360       -6.81691491410625        4.52502227277356
H            0.48434774238248       -6.41709144510164        3.59542140646350
O            1.76302588101734       -3.94819523628072       -2.73860540683964
H            1.25150097932908       -4.21261221122550       -3.50935686680171
H            1.47496860290167       -3.02817798899578       -2.58226082510378
O           -9.48129447974405        5.38844216639471        7.47515715137868
H           -8.71404115151226        5.89654655060257        7.20390140511063
H          -10.16936954340885        5.54403623565445        6.82502048154604
O           -0.19854267714494       -0.42604274717046       -4.79905625322038
H           -0.66822738420006        0.37073562378301       -4.54701913402149
H            0.18003033466976       -0.75555474398431       -3.96085101576716
O           -0.84020582430567       -3.20496213941906       -4.08410872451657
H           -0.46416492022399       -2.67024371515297       -3.36651918655301
H           -0.84281206869329       -2.59658107286467       -4.83051091895215
O           -0.46284426278294       -8.74291691964485      -11.36627797471781
H            0.02369252106207       -8.36482783360795      -10.63094216234547
H           -1.10738634890161       -8.08883466770656      -11.64368491158852
O            0.51534494958370       -0.81524507306982        2.47683505078745
H            0.37141441620018        0.09347857724194        2.74484493692239
H            0.45579733015521       -0.81143707096694        1.50341080670514
O           -1.26857196669860       -6.39315505289568        3.00385885027360
H           -1.78983947921710       -7.07014286169686        2.56830387587919
H           -1.55376125003355       -5.54243501229605        2.65068894085112
C            0.16311689947128       -0.75861683357332       -1.42698342132502
O            0.56658077756951       -1.49064863936334       -2.34469937304330
O           -0.69344226357810        0.21725283322373       -1.88630570662960
O            0.45671088220909       -0.84568955230168       -0.23388074224390
