101
 energy: -141.133363217782 gnorm: 0.000187636265 xtb: 6.5.0 (unknown)
C           -4.71240690030270       -4.61605824154777        0.03681177991870
C           -5.14834638523813       -3.43555111515878       -0.82250027937148
H           -5.07649916259969       -5.55019447143305       -0.38488529848506
H           -3.62726857481479       -4.66354495838239        0.09730464016458
H           -5.10528077534036       -4.51952330285949        1.04675439273534
C           -4.67037495305434       -2.09507946373697       -0.24453418813156
H           -4.75730894160946       -3.55914525022780       -1.83368618739323
H           -6.23811926004108       -3.41860344155887       -0.89086545289781
C           -5.21139650544096       -0.93189142895488       -1.09228810183734
H           -5.08737413489547       -2.00195654588734        0.76504414775238
H           -4.70129919599831       -0.91531116093898       -2.05589550558145
H           -6.27127049147885       -1.11414050639339       -1.27970720729410
C           -5.08431792378459        0.44374381783438       -0.41705292487723
C           -5.99262228532858        1.46079097491615       -1.12535931369121
H           -5.43743825741484        0.34747166803939        0.61615774661820
H           -5.66365940697660        1.58775582093545       -2.15802262677713
H           -7.00831466406378        1.06220037797337       -1.14906900497351
C           -5.99185263650000        2.81352721291670       -0.42383183816388
H           -6.65600371119526        3.50763896546150       -0.93373584657786
H           -6.32858796543563        2.71098733563145        0.60561805770485
H           -4.99030638480792        3.23863505802488       -0.41250595365407
C           -3.65854699866957        0.92865685432436       -0.37961283449047
C           -3.01154855888282        1.12901673405790        0.83321207828213
C           -2.94607766400840        1.17500886963224       -1.54648615426844
C           -1.68333210173385        1.50410483347179        0.88635438403129
H           -3.54617542031368        0.95727817851672        1.75582858878968
C           -1.62771856184876        1.58623863706831       -1.49906485642896
H           -3.41824991480622        1.03470859369164       -2.50775252770074
C           -0.97083715458140        1.74351274969146       -0.28377739169988
H           -1.19058654591265        1.57409560262291        1.84313627575748
H           -1.09264691627017        1.75731594486575       -2.42364089456417
C           -3.16829125714428       -2.05168768742767       -0.13614143457490
C           -2.55452835629036       -1.82914744561894        1.08974558600635
C           -2.35767613772908       -2.19798820998431       -1.25476201204395
C           -1.18394685170186       -1.68880968663854        1.19239696860626
H           -3.16207444069949       -1.72690734417212        1.97725315266237
C           -0.98353347692731       -2.09851822415057       -1.15141945464174
H           -2.80058840094270       -2.37782462198947       -2.22345624463209
C           -0.37576063537939       -1.82401412925927        0.06864808889820
H           -0.74709093519192       -1.43028788963796        2.14422552156479
H           -0.37432602796681       -2.20117141804135       -2.03906296212641
C            1.09816991520847       -1.56454591856878        0.13635897777732
H            1.48882129496819       -1.35921136831308       -0.86203616816380
H            1.28838154887473       -0.67791574596447        0.76880064098913
C            0.49372510674650        2.06148790813769       -0.24397346023021
H            0.98883441665465        1.43983617674458        0.52995197884804
H            0.94687261063743        1.83002270567248       -1.20986350923536
C            3.32245489839810       -2.15007644804276        0.73978376766739
H            3.97679268052711       -2.88011455870778        1.20959362573881
H            3.64769516691483       -1.93879640843314       -0.27594921162809
H            3.34987905365994       -1.22642632092199        1.31392297635763
C            1.85620019026605       -3.86001713871462       -0.09117385227465
H            0.82285733715103       -4.20046045084549       -0.14620989636600
H            2.21423392923676       -3.64926890889168       -1.09780271749241
H            2.47109532108638       -4.64175530892518        0.35179321503960
C            1.53000458344247       -2.94469154805177        2.10809949021932
H            1.45592802404053       -2.00856054192880        2.68672500704111
H            0.56645607880687       -3.44773784572656        2.11551411415615
H            2.28062795122169       -3.57843425295525        2.57603810598414
C            2.31509783060631        3.53308920717838        0.20701918162008
H            2.62687419713984        4.54238742453655        0.46384899372371
H            2.62529296787746        2.85869065773273        1.00216763764571
H            2.78991351997218        3.21443093935054       -0.71806079637352
C            0.38684481256480        4.38410906178989       -0.95525092867848
H            0.87077710725137        4.14372071001349       -1.90094696471554
H           -0.69184366641464        4.29020327827474       -1.07553225514269
H            0.63088919783644        5.40949673764256       -0.68234951524638
C            0.27171861704190        3.86987248234672        1.38698132753324
H           -0.80996784884760        3.94196131498469        1.31000178780921
H            0.53733208109877        3.12654301934140        2.15810293151482
H            0.68716742045371        4.83035823647627        1.68469996755211
N            1.93695473425705       -2.64527529413299        0.72640052261994
N            0.85004605966307        3.46956479478660        0.09418565755926
O            4.39863930952193       -3.55908803722914        3.27577804128399
H            4.88785106071078       -3.91941746102658        4.01544273700648
H            4.22455009789122       -2.61746501915589        3.52177946077625
O            3.91986323561153       -0.99963584759583        3.92136397345941
H            2.94886250291309       -0.81632286241072        3.93216370998972
H            4.29681324844919       -0.32675854496430        3.33807424669807
O            3.22168627643463        3.29458359561263        3.42446244674606
H            2.35781035384464        2.72524317024611        3.39802034097632
H            3.44043848620318        3.32128237853672        4.35652793654270
O            4.63810247794325        1.40036848961845       -0.69683606851421
H            5.57508240175148        1.26581759601345       -0.84488541910939
H            4.52618462382576        1.32292099314672        0.28972058722665
O            4.40828000529797        1.16237313656471        1.92648633316811
H            4.37046393200671        1.98791233535861        2.43017818180870
H            3.41846091388038        0.90949423389772        1.85347404428873
O            2.63085731661443        5.71546717990149        2.38377397580860
H            2.84101528058044        4.82810825565823        2.76105434385835
H            2.98314632874083        6.35113402018219        3.00681422821604
O           -8.56692798067055       -1.01794406192340       -0.57172708285606
H           -9.51586583028949       -1.15011036687813       -0.61549950699517
H           -8.32476087548560       -0.99430673780976        0.35666840509709
O            3.29360236411133       -0.54458777970592       -2.05440896259788
H            3.68755428067834        0.15368932129555       -1.48713375973235
H            3.58847385900991       -0.34772328894529       -2.94426051495211
C            1.44672081236713        0.70414586011062        2.97093533918606
O            1.95594055029902        0.64136829490927        1.76131119383325
O            1.13529333944664        1.85674586313069        3.40923080232665
O            1.32036297632574       -0.35782951751983        3.62125502887627
