101
 energy: -141.097284677450 gnorm: 0.000309996870 xtb: 6.5.0 (unknown)
C           -4.26470518657818       -4.59285826930528       -1.45033849930008
C           -4.60256919763230       -3.16158329371634       -1.85037635761087
H           -4.62158396900227       -5.29384574336526       -2.20135053835947
H           -3.18932696307381       -4.71578920695366       -1.34455540926587
H           -4.72828013089605       -4.84311933578157       -0.49869283072614
C           -4.13092582835362       -2.14750682838124       -0.79820523825165
H           -4.13914794087745       -2.93376997970119       -2.81215701726702
H           -5.68417354843868       -3.06822869378418       -1.97917095747958
C           -4.58495245674306       -0.72733332161217       -1.17223664650872
H           -4.58927923977379       -2.41362599626038        0.16010188132142
H           -4.13113616473399       -0.43700663541600       -2.12083087870362
H           -5.66868575263901       -0.73832168219690       -1.32693902514760
C           -4.23863614351123        0.31077471720813       -0.08947015486865
C           -5.18887540939996        1.51631206145769       -0.15545762936427
H           -4.36497049147625       -0.16289101990676        0.88857196935472
H           -5.08973718327232        2.01380452085278       -1.12229007990625
H           -6.22012274355848        1.16582672039227       -0.06896387203940
C           -4.91506245068338        2.51434823367906        0.96329186084295
H           -5.61394996661886        3.34556173913450        0.90970858769992
H           -5.02538772981209        2.03598575015225        1.93341898703887
H           -3.90437401385543        2.90972523278455        0.88242249575155
C           -2.80200895424830        0.75380179188183       -0.20598856464405
C           -1.89632952128598        0.47554806754677        0.80985935814111
C           -2.33888403530317        1.42649889271243       -1.33023709175679
C           -0.56496333858109        0.82823931683294        0.69868053569023
H           -2.23437632248183       -0.06987734636695        1.67785531664278
C           -1.01564263649204        1.81325839304037       -1.43056719602387
H           -3.01514507980385        1.65162695836141       -2.14227539461948
C           -0.10961974831234        1.52225885209044       -0.41699456792707
H            0.14138874533816        0.53289388452540        1.45895028268801
H           -0.67573534946745        2.32943698928016       -2.31712860112517
C           -2.63803897961003       -2.21399818388071       -0.61049144359578
C           -2.10612671761627       -2.51782576770977        0.63502063254540
C           -1.75442259790059       -1.95045425346066       -1.64876882781155
C           -0.73957543529342       -2.54349785548225        0.84511080409808
H           -2.77298486811708       -2.69577388935538        1.46574937773872
C           -0.38884907765126       -2.00455860412386       -1.44538224016595
H           -2.12873899352157       -1.69337652576780       -2.62909838819328
C            0.15220843030374       -2.30678774959677       -0.19507590123402
H           -0.38584606389153       -2.72223022578632        1.84775728509668
H            0.27635757951632       -1.77200245340439       -2.26556706128847
C            1.64235807608971       -2.28640821560017       -0.06521377456539
H            2.06611295242183       -2.33669510704401       -1.06875877950584
H            1.97421381330936       -1.31228119497405        0.38136081365128
C            1.33133960191678        1.92255578639790       -0.53094322317661
H            1.95577842719732        1.14030186887864       -0.06944156748599
H            1.61749422496038        2.05167401753894       -1.57557741217688
C            3.67173016751198       -3.50442956997748        0.23649807070341
H            4.22270256130476       -4.21850449361757        0.84292877476642
H            3.65606031203235       -3.83818954423934       -0.79782267708087
H            4.17487157208973       -2.52808363038802        0.31478494938292
C            1.61573924134554       -4.64749357997245        0.64113411437456
H            0.62193159885685       -4.60320203799229        1.07937987572079
H            1.51495854687939       -4.92640042502086       -0.40704346797629
H            2.19771260252804       -5.40597337853374        1.16160688802973
C            2.39646262111627       -2.92507037322892        2.16127570033129
H            2.70154579869077       -1.87337927486763        2.18453698849141
H            1.44120122925938       -3.03051764650052        2.66634525948561
H            3.15311794058517       -3.50508731658042        2.68310279866841
C            3.02295609834037        3.59908206631438       -0.16697433177332
H            3.26941465610126        4.54450820094074        0.31035037959420
H            3.71302726702892        2.81056728051225        0.18602431977805
H            3.11214700363619        3.69192854658948       -1.24571671314314
C            0.71846698319285        4.25622525764523       -0.16772713437872
H            0.78243442861318        4.43918519738536       -1.23892352601995
H           -0.30189580847841        3.96900268269585        0.08264642456410
H            0.97359196083410        5.17150954057757        0.36473409775868
C            1.62685400730263        2.93573450521408        1.64530531614408
H            0.60369891399600        2.77769496878212        1.97880281248261
H            2.21740105445358        2.03195778457798        1.84258581968376
H            2.05886664704106        3.77709618575854        2.18257590765339
N            2.29998144030767       -3.35129078624525        0.75263147805774
N            1.65752433719879        3.18894580350618        0.19736166420779
O            5.14573960078452        1.41618976504526       -1.81946255296205
H            4.96388452955647        1.43482632062409       -0.84254333595311
H            5.38897077531774        0.48432048666996       -1.96280395770797
O           -3.63924918250024        0.92665812526199        3.95666236490444
H           -3.02339929079073        1.22531107022151        3.28109842013267
H           -3.14408436648534        0.81904626426767        4.77155138108943
O           -4.49487828942095       -1.55783678386263        2.82576764050909
H           -5.44387615228947       -1.55633389189000        2.64080393940145
H           -4.32395684219385       -0.74239307357063        3.31631181987756
O            5.88290141266431       -1.20783266679462       -1.40834902704525
H            6.82058861897738       -1.14506250203943       -1.22287866422416
H            5.44675617752063       -1.04275508922065       -0.51789060936771
O           -7.05091320257907       -1.56997871057033        1.57113529507409
H           -6.65558084054790       -1.25713182699848        0.75276872808872
H           -7.38139297403120       -2.45598068964789        1.41033964458322
O            3.05171636146736        2.38753378170140       -3.09959132203603
H            3.33218250994012        2.37544492060560       -4.01496893397637
H            3.82169351059376        1.99660901717156       -2.59894724692259
O            5.36549375903382       -2.57683201066444        2.82575339461006
H            5.10631513734461       -1.91170529403271        2.13823706307720
H            6.18524003399196       -2.23771557811967        3.18557050868807
O            0.41620485686871       -4.92629728587476       -2.28951784086425
H           -0.10486860180944       -4.12208795403747       -2.18133513653142
H            0.23554208447920       -5.26750601360786       -3.16707848162061
C            3.96199438367908        0.15660006646713        0.97222718171718
O            4.70069451962105       -0.89151464601614        0.88343818337493
O            4.44185862320569        1.29720224723929        0.71639058995280
O            2.72319746061778        0.02769363509846        1.28484279569301
