101
 energy: -141.137871737532 gnorm: 0.000193127903 xtb: 6.5.0 (unknown)
C           -3.80563810693033       -3.58161614229701       -0.02242354935755
C           -4.29270376184931       -2.13964014406096       -0.09361071730706
H           -4.48467966117384       -4.23802590695669       -0.56113740755582
H           -2.81556738493631       -3.67299480895152       -0.46364969565117
H           -3.75291179595015       -3.91732990495466        1.01119436332510
C           -3.37349101740323       -1.17894819123287        0.67801124732469
H           -4.34792486648195       -1.82768915245732       -1.13782795893805
H           -5.29939198285888       -2.07885022799029        0.32574869251923
C           -3.97867020134793        0.23334966410117        0.68765724831719
H           -3.31700959299360       -1.52905421926351        1.71557817924646
H           -4.04915960399006        0.60924017943808       -0.33289787876421
H           -4.99638385709987        0.15645149896777        1.07899040019263
C           -3.20543995827553        1.23887778989764        1.55635586982104
C           -4.07243426577766        2.47830368421897        1.83095704474672
H           -2.98895917784880        0.76176747537661        2.51941233120860
H           -4.31522501269947        2.96920934951493        0.88718836062711
H           -5.01072578748528        2.15866778476236        2.28989539987812
C           -3.37704457299219        3.47168363227077        2.75369110917744
H           -4.02299965779908        4.32428666856266        2.94887366570962
H           -3.13129583793308        3.00291841695933        3.70432735010303
H           -2.45585863584888        3.83310686030917        2.30212060134176
C           -1.89845875108245        1.64166546030683        0.92301399184092
C           -0.69511095784575        1.40243965077320        1.57264989123827
C           -1.85980211677599        2.25298996748485       -0.32525429067978
C            0.51142817316405        1.73056343586662        0.98271574055813
H           -0.69941351920003        0.93498780730348        2.54701407998515
C           -0.65728570005314        2.57392418956681       -0.92314309159351
H           -2.77836405256504        2.46310026970016       -0.85200581206007
C            0.54662728918497        2.31481807172318       -0.27672460302846
H            1.43434496964339        1.50364121904255        1.49788669275305
H           -0.64425455278062        2.99448434880908       -1.91695085511971
C           -1.98419810729850       -1.20311046821308        0.09688741283469
C           -0.91925512572047       -1.69345555160151        0.84090181667153
C           -1.72862388917181       -0.73987904358551       -1.18859251551568
C            0.36681013799553       -1.68587705782196        0.33380922803989
H           -1.09399524294940       -2.07150965242528        1.83823620062762
C           -0.44509537932692       -0.71841873428699       -1.69704274511599
H           -2.53632825424716       -0.36781471989846       -1.79918410408130
C            0.62133690160728       -1.18726859082749       -0.93720191605367
H            1.18096564030988       -2.04745657621971        0.94664983916363
H           -0.26853780117250       -0.31444111046664       -2.68203318482135
C            2.02295691278144       -1.09636135771008       -1.46863084036345
H            2.09493644938804       -0.23210213495009       -2.13046725161941
H            2.73029889501080       -0.95300263529711       -0.64894788684723
C            1.84606270578252        2.59972346085740       -0.97274881306790
H            2.61704693872379        1.89779473207943       -0.64848251577691
H            1.68291991599292        2.47128103717593       -2.05000786140627
C            3.84741133734530       -2.01252614122802       -2.71871910245194
H            4.17908502446336       -2.82161915719431       -3.36143288913795
H            3.87735726891128       -1.05972360309250       -3.26695136951591
H            4.51358011659219       -1.93144744714643       -1.86243053857674
C            1.59211311422502       -2.49051715975401       -3.41332989127575
H            0.59276761957028       -2.74954118051195       -3.07057306176427
H            1.52234142482231       -1.58586185389367       -4.02696127528282
H            1.98684151209308       -3.30501318311521       -4.01335146305576
C            2.47853167734588       -3.50064023852918       -1.44398456963245
H            3.13759285290074       -3.38043489021263       -0.58581792642403
H            1.47219618870550       -3.72258739224017       -1.09328902139912
H            2.83872850992836       -4.32389590907123       -2.06016536854728
C            2.63729362469277        4.21014378592332        0.66489661924375
H            3.03482316286408        5.21477595126000        0.79877413915392
H            1.71231857481932        4.11094710934707        1.23066240577480
H            3.36247055512704        3.48615763576252        1.03277267133624
C            3.66142333609930        4.09342574944397       -1.48661781844527
H            4.32303951399383        3.27899346950833       -1.19494144318884
H            3.49778550305735        4.03247389373507       -2.55905952832935
H            4.11423578735553        5.05784916875937       -1.26968457355412
C            1.44345595750673        4.99424075905029       -1.25695203917558
H            1.25549923932138        4.84090749422471       -2.32412789788921
H            0.50571003315915        4.93236979494968       -0.70974520509341
H            1.88552109937749        5.97943527517465       -1.12462154059628
N            2.47530746208866       -2.27795520474750       -2.25698133875773
N            2.38364786383937        3.97619261279896       -0.76189446137911
O            4.56955003931393        1.02221912707633       -1.33938179785458
H            5.52139055934292        0.97326967781951       -1.42823887831837
H            4.23649827153446        0.94889184287893       -2.30913382934842
O            3.19042761582485        6.54116900882991       -4.01180998383540
H            2.64616735579427        5.71568151569369       -4.15751205756109
H            2.83651435676482        7.17089004601856       -4.64035450680224
O            3.61332465704879        7.24353835594341       -1.45709745590019
H            4.10690353767085        8.06290672858447       -1.50075598638076
H            3.46356542978802        6.98079227925182       -2.39719998107886
O            3.66013805452813       -0.35678765410711       -5.92224676887143
H            4.17067902275035        0.18716292879364       -6.51988830536969
H            3.74445680184403        0.13349488433317       -4.95820160648386
O            3.69458340431902       -4.78643748952178       -4.31930210863507
H            4.14927101617746       -5.56781434398918       -4.63447132583392
H            3.73569166701647       -4.14223313384841       -5.06380071750712
O            0.98594722416325       -0.10228847300714       -5.17143355632586
H            1.82837917842348       -0.15330873965220       -5.65415896154121
H            0.97060500638501        0.80151342279010       -4.80613870603384
O            3.71992988772388        0.76654552231427       -3.72697854082290
H            2.77756021326063        0.95035685608766       -3.64588682226448
H            3.60938311258868        2.25470269223749       -4.42751431049768
O            3.68610984885813       -2.95420443951256       -6.27981644803830
H            3.75858784551173       -1.98244528687633       -6.08029290809816
H            2.92586329261234       -3.02279255969541       -6.85950599776441
C            2.00355148959974        3.33313667943302       -4.30533237613772
O            1.56911754708086        4.49607874792110       -4.27016970287199
O            1.37511601278381        2.31867738764607       -3.93632884984829
O            3.30253715580448        3.18480871574943       -4.67086346235667
