101
 energy: -141.116414176841 gnorm: 0.000352971256 xtb: 6.5.0 (unknown)
C           -2.77796679067344       -4.21359404872684        2.12228388424874
C           -3.58476448495390       -3.45136925513741        1.07821548575663
H           -3.11273270932293       -5.24663612403138        2.18439087766541
H           -1.72055593943554       -4.20716123275050        1.86697877585599
H           -2.89283389041550       -3.75561277209051        3.10230934560998
C           -3.15710062978084       -1.97969931492808        0.98343223679304
H           -3.46983812227962       -3.93328293670220        0.10599366653708
H           -4.64441629169928       -3.49076761131916        1.33948282915202
C           -4.04548647487347       -1.23104326181549       -0.02440153886342
H           -3.30768723722129       -1.52699645847696        1.97019715813003
H           -3.76469893553319       -1.51601219254553       -1.03874580182879
H           -5.08040960985204       -1.54151447004850        0.13036151358387
C           -3.98967695012014        0.29608677268225        0.12891820599020
C           -5.07660628668092        0.95988729073442       -0.73268919049419
H           -4.20741632796201        0.53406579348973        1.17628859898291
H           -4.82298985480637        0.84693272415676       -1.78856632647329
H           -6.02325582698428        0.44425737087053       -0.56305447685361
C           -5.23787417161896        2.43891515631560       -0.40027307254518
H           -5.94899459762934        2.90682136075258       -1.07703504721445
H           -5.60310092602500        2.56164423188428        0.61721281704694
H           -4.28585860150407        2.95863186541956       -0.48085597576987
C           -2.63743919278813        0.86719995276997       -0.20873177113032
C           -1.95425873633868        1.66129938836239        0.70412041796675
C           -2.03883934350291        0.62287019947651       -1.43901832229433
C           -0.70001868909867        2.16691697487985        0.42047631476799
H           -2.40044621216502        1.86694122292826        1.66599765555882
C           -0.78875871302403        1.13574389738448       -1.73332236101572
H           -2.54083924185167        0.00478733587888       -2.17033035879236
C           -0.10179474828667        1.91390217515976       -0.80857476954987
H           -0.16901198856522        2.73224448195378        1.16970533201704
H           -0.33038283605820        0.90942396154998       -2.68608544253886
C           -1.69786945549264       -1.84840414983172        0.63015362592673
C           -0.84687386506290       -1.09251728585650        1.42494305972701
C           -1.16731455187227       -2.44399502153566       -0.50796920987090
C            0.47793175149114       -0.89352078016533        1.08435275128822
H           -1.22658494435094       -0.62432076837093        2.32035069787643
C            0.16630615316042       -2.28448136477869       -0.83348585418341
H           -1.79824575803493       -3.03650170174089       -1.15455494559506
C            1.00713438013863       -1.50184293867557       -0.04843102954595
H            1.08001671749514       -0.24346457058683        1.70579820741685
H            0.55162532028509       -2.75814489508153       -1.72695477148226
C            2.43769807970209       -1.29153800347993       -0.45508960218056
H            2.55244575547483       -1.51018118405374       -1.51956714417600
H            2.74307992412773       -0.25108633533355       -0.29558638728056
C            1.28046722568539        2.40342027104082       -1.11448791390520
H            1.91139328572032        2.35307274821678       -0.21899629650304
H            1.73659013675034        1.78288708120413       -1.88746682253672
C            4.76573824741063       -1.81144958302561       -0.26400845372688
H            5.54344749600445       -2.22184388654025        0.37309661211285
H            4.86269680356409       -2.19574726565128       -1.27709056144918
H            4.87403958954126       -0.70979145429994       -0.27766648070168
C            3.13639763058230       -3.55611701654215        0.09360005087175
H            2.15279829900175       -3.78588424619819        0.50176694860662
H            3.14609555378217       -3.80906618576783       -0.96605458615918
H            3.88652601736454       -4.15563192463267        0.60669965855967
C            3.42570803755844       -1.81064511630473        1.71320414416017
H            3.64798783752814       -0.74193360474129        1.84495821314912
H            2.45995889355705       -2.04200136233301        2.15277767033484
H            4.20793453173656       -2.37049408037907        2.21944458301560
C            2.79061167588491        4.12867386148016       -1.77857653704764
H            2.91730205493272        5.17472781012091       -2.04514724262686
H            3.32616812272951        3.89197885293066       -0.84669004625403
H            3.19992803309820        3.48597605272928       -2.55671587072955
C            0.64722756101845        3.96511251976595       -2.85824320735109
H            1.11310682267491        3.33402602283690       -3.61259197346571
H           -0.39283543122503        3.66937667186582       -2.73573442488939
H            0.67863221312788        5.00191530554673       -3.18812107700594
C            0.79754906357005        4.73150350417959       -0.58670872617206
H           -0.27294876698240        4.56135189235343       -0.49137055426042
H            1.27487212524016        4.55994204095373        0.37996720919445
H            0.96864541137535        5.76086322352588       -0.89602283114163
N            3.43374404702409       -2.13088105328411        0.27838008677029
N            1.36442618242423        3.81710204792324       -1.58680695320299
O           -2.47481091656779        5.01415456656221       -0.81050928208773
H           -2.93854176744597        5.54160593908658       -0.15906874452723
H           -2.22004777413593        5.60894090068498       -1.53837147661362
O           -2.71343793048316        3.36948902105811       -3.04066585258670
H           -2.81558485562876        3.70013148254077       -2.13438541865806
H           -2.66806826290208        2.41244728388269       -2.96811732148023
O           -1.92715439087728        6.03551126944919       -3.33453035481772
H           -2.13751514242078        5.11154057501243       -3.54120348722612
H           -2.52597644945831        6.57157789387142       -3.85674934733883
O            3.66774744381846        1.38127910413195       -2.82111099411707
H            4.47408590848418        1.14448275361276       -3.27946853073101
H            3.92811918363093        1.32543538857930       -1.83980109999757
O            1.84763206970737        3.79107202937168        2.25404108797874
H            2.59743558327351        3.37237814483974        1.69650734775745
H            2.30637495263977        4.18743347736454        2.99490373146406
O            6.29831450461606       -0.65928519579914        2.15773006563946
H            6.96307334718546       -0.15563269221417        2.62749622681226
H            5.57083305622792       -0.00306997698918        1.99202117414383
O            1.89886426892619        1.06847307665031        3.07526179135916
H            1.62089036039192        1.98326690070186        2.92599858863912
H            2.82614484719114        1.06311381013550        2.73927116892639
O           -7.27382689752203       -1.30020965193941        1.03415340966338
H           -8.16524195556515       -1.61592696249213        1.19435093974789
H           -6.98594376829272       -0.84334619573174        1.82759534478456
C            4.09693246961585        1.65110789148174        0.72270579116803
O            4.27110841005386        1.04846175383632        1.83167621424383
O            3.60147910128338        2.82651742428745        0.68789758799386
O            4.35581221551305        1.04045998520731       -0.37066937895932
