101
 energy: -141.113181431068 gnorm: 0.000489389505 xtb: 6.5.0 (unknown)
C           -4.12387581773620       -4.52484754381620        1.36392143641614
C           -4.56743857632459       -3.29262866717058        0.58494019630894
H           -4.66017362562709       -5.40702369269290        1.02130143448798
H           -3.05773541751287       -4.69598647688335        1.23150595054340
H           -4.31993691828051       -4.39416895168384        2.42606986923457
C           -3.85348831819513       -2.01957212311114        1.06438229261332
H           -4.36528140116969       -3.44149138274583       -0.47715986381543
H           -5.64520579687711       -3.16131941112750        0.70469667229318
C           -4.42241757093131       -0.79130321076012        0.33873725927595
H           -4.05213419016494       -1.89638585723351        2.13463697708304
H           -4.21671209330337       -0.86437288169944       -0.72847239990276
H           -5.50777056851834       -0.80465563419637        0.46673946933532
C           -3.89306263201487        0.53815752100077        0.89696528955827
C           -4.77137563813093        1.71008153675695        0.42483044108929
H           -3.95518087727033        0.48822486066001        1.98876944496084
H           -4.62041251109210        1.86818786451522       -0.64570334258121
H           -5.82186273316538        1.45222054259397        0.57429739336363
C           -4.46858795482963        2.99339935029193        1.19064872768983
H           -5.07313958271091        3.81689882607112        0.81529621715000
H           -4.69277779283644        2.85884972641279        2.24631105726381
H           -3.41838294098922        3.26289232187243        1.10456318509143
C           -2.46028870104192        0.79871937772842        0.50764244958430
C           -1.51522409043572        1.14235626224379        1.46672521744885
C           -2.04776888260294        0.72467966751620       -0.81953765515413
C           -0.19457230691883        1.37137950998629        1.12401826367792
H           -1.81798282157552        1.21709395011813        2.50045248959115
C           -0.72407346247669        0.92856837759963       -1.16160341166985
H           -2.74253469577579        0.45690381150721       -1.59959851765621
C            0.22102172985539        1.25867148308561       -0.19671717846877
H            0.52636325933204        1.61262849448868        1.89124810175847
H           -0.42273054719742        0.79106835315824       -2.18734573954355
C           -2.36607545151877       -2.15089309214701        0.87151481464919
C           -1.51846281774766       -2.18005488664684        1.97126390828611
C           -1.80340071982712       -2.23663516003760       -0.39641043442673
C           -0.14730783451291       -2.25144884955219        1.81267446224974
H           -1.94075102386748       -2.13045490150766        2.96433116182320
C           -0.43322547021361       -2.29862916157155       -0.55982361315644
H           -2.42626667410919       -2.21192781362011       -1.27611620639031
C            0.41416219431030       -2.30236713478038        0.54218008046210
H            0.49476493544140       -2.23794001837348        2.68237789812225
H           -0.01925426820706       -2.30533260215494       -1.55619886320561
C            1.90305683526320       -2.28592436258422        0.36062041161267
H            2.14785943968066       -1.74005291103747       -0.54776356531017
H            2.38987531094967       -1.78717353039285        1.20542292687178
C            1.66492921933470        1.39554110677724       -0.57275539370621
H            2.30285317449112        1.12480794525824        0.26823727512480
H            1.88338644925123        0.72872109577015       -1.41135932643144
C            3.99647265773990       -3.44294731673225        0.16884863902278
H            4.49665874196135       -4.40454302013404        0.07907995231958
H            4.23913893913627       -2.81338577275296       -0.69196578078348
H            4.33247281422967       -2.92751994486190        1.06678699107183
C            2.08797592825260       -4.28056320285104       -1.01409613709618
H            1.01763248470673       -4.46886736835004       -0.96921837520262
H            2.29993579810263       -3.61153404878519       -1.86149387294075
H            2.61524453464685       -5.22171642281427       -1.15605052748661
C            2.20552456195506       -4.46290317571427        1.39069075447547
H            2.56966534130022       -3.97551402027173        2.29349150467338
H            1.12644647824224       -4.58976923052054        1.46348386069161
H            2.67675788934523       -5.44036183138625        1.29845180118215
C            3.49164128880415        2.64380079119263       -1.46930411081365
H            3.87698306399034        3.62102557092425       -1.74982238544727
H            4.09296503232076        2.21163976040222       -0.66892280180068
H            3.53693116097839        1.95447397050350       -2.31619031507240
C            1.28000576008004        3.19134624843554       -2.17120717669653
H            1.32674787127863        2.42902198844032       -2.94613416563176
H            0.24931199364085        3.35483839426787       -1.86277895574541
H            1.68170643438095        4.12321736634143       -2.56619305892036
C            1.97663489154576        3.71228701919992        0.07518100267621
H            0.93720208156744        3.78278901391498        0.38963268679467
H            2.59705838834372        3.37142966141722        0.90743047315424
H            2.31608295069037        4.69419326296115       -0.24957246381287
N            2.53786285197967       -3.63372545025814        0.22694496527642
N            2.09111134292696        2.75236135302463       -1.02878071648909
O            3.96938952521820       -1.10881730509741        2.20451614472429
H            4.22762786247707       -0.53905320731040        1.37396491052219
H            3.86131133684697       -0.45623545977284        2.89736762632630
O            0.28128110319841       -1.11576085417272       -4.03345163241789
H            1.08086517093856       -1.57372238785686       -3.65903968358217
H            0.65116421694290       -0.29046149345056       -4.35556503889501
O           -2.40765347350830       -1.21224035208365       -3.47760800814513
H           -1.43546069068563       -1.16932192230673       -3.56593017267375
H           -2.70606184083608       -1.63329030556891       -4.28511250768981
O            4.58260019330265        0.40591961164865        0.26124700350202
H            4.26985906012880       -0.40764555266190       -1.06658759820707
H            5.53779813874718        0.35291803669938        0.24602608117306
O            3.96117514846582        2.22263937416842        1.92832590641435
H            4.75233850211765        2.39092682670783        2.43916789050989
H            4.22564743224642        1.48081855477306        1.26117229555111
O           -1.59981539392172        3.94477799649222       -0.84604148978682
H           -2.39300227121261        4.46842884218987       -0.97351935313421
H           -1.88322046266954        3.02832278617545       -0.73852007661505
O           -4.22002745001616        1.35952712227754        6.58460033709181
H           -4.63099558889295        0.81061992738987        7.25628194760797
H           -4.83868043998949        2.06077000997432        6.36856338118621
O           -3.54223753363237       -0.16200720570796        4.29117635097561
H           -2.58662076143649       -0.24073994877381        4.25391459287731
H           -3.73952658640411        0.37305570995664        5.07373191575779
C            3.09714874854473       -0.98941933035190       -2.63241272953974
O            2.79112849981982        0.15174964041802       -2.99944987717291
O            2.51488721265182       -2.04503920650226       -2.96219357079614
O            4.11356799763939       -1.16441127406432       -1.73836130583420
