101
 energy: -141.137587341326 gnorm: 0.000306282350 xtb: 6.5.0 (unknown)
C           -3.28375469702824       -4.31357406580901        0.65211078259159
C           -3.86529524810264       -2.99731320239390        0.14999542677813
H           -3.80411049388078       -5.15548565110425        0.20107255795519
H           -2.22663821320393       -4.38738767741206        0.40659009147683
H           -3.38709655503900       -4.38758775120117        1.73260740195067
C           -3.15891675687417       -1.77542025999367        0.76256462491440
H           -3.78072379895365       -2.95124909089568       -0.93766099413402
H           -4.92797027446436       -2.95640378473293        0.40055141002907
C           -3.84392168059478       -0.48708780725686        0.28424485307390
H           -3.26222769436405       -1.83658664349203        1.85219478591542
H           -3.65591120401614       -0.34597956076692       -0.77992140496570
H           -4.92296259647217       -0.61190219721830        0.40985381339354
C           -3.43080365000186        0.78188967976730        1.04698198582637
C           -4.32358726833619        1.94917925359043        0.59299054089028
H           -3.61617117858896        0.61029586394837        2.11428781518080
H           -4.19001772677048        2.11263272969320       -0.47752520835163
H           -5.36711502190183        1.67009447481450        0.75699982898442
C           -4.02930641423475        3.24528878105591        1.33706470171979
H           -4.74900375814062        4.01112517485325        1.05711324280349
H           -4.09601051972485        3.09181516371799        2.41283632021412
H           -3.03434122196094        3.60737218942308        1.09233165323609
C           -1.97014891867053        1.11328515472907        0.87372346576670
C           -1.12500246191204        1.16328222834864        1.97662329445576
C           -1.42369747505508        1.37008997612035       -0.37811570819854
C            0.22403788238608        1.44483124034018        1.83617061239461
H           -1.52446023507034        0.95750611750253        2.96094042626491
C           -0.07510954881733        1.63178174637179       -0.52797700934823
H           -2.05214591532576        1.34296980880486       -1.25487181382735
C            0.76470838218370        1.68188069338033        0.57875792990440
H            0.86861572093988        1.46439101820481        2.70246679844430
H            0.33646703762748        1.76991379616234       -1.51631955363040
C           -1.69236672890684       -1.80927636216375        0.41849695694172
C           -0.73798789198840       -2.04339682542199        1.39939284196256
C           -1.25949641387032       -1.62446016855775       -0.88829658981704
C            0.60908070090258       -2.07658559819547        1.08951120709978
H           -1.05188556553424       -2.19331660283828        2.42277275694824
C            0.08495907835643       -1.62675766130682       -1.19734858190659
H           -1.97281381003802       -1.45904962958748       -1.68114715245517
C            1.03729073093398       -1.86299599307824       -0.21418863999054
H            1.33439392143698       -2.24597198743792        1.87177900158204
H            0.39625463707134       -1.42197794072113       -2.20831211332252
C            2.49703563814580       -1.80374927721716       -0.54961060567916
H            2.65742013459914       -1.07100329167724       -1.34320886458925
H            3.07168190280346       -1.50809231886357        0.32803769243258
C            2.23981260579974        1.91969615874302        0.42143981103016
H            2.77236740202643        1.48228333151699        1.26508317354776
H            2.58557173712391        1.44599222729053       -0.49487101148812
C            4.48914660354497       -2.79473959593008       -1.42467077439738
H            4.95836454978699       -3.68922285735269       -1.82825377631649
H            4.49646007456647       -1.99729747760970       -2.17139911487415
H            5.03827302208267       -2.45365064029076       -0.55127362863940
C            2.38209894686970       -3.55132915099701       -2.24612752936939
H            1.35240329118213       -3.81322169448532       -2.00632585631479
H            2.39252312971204       -2.76669581133482       -2.99951137505114
H            2.88260658237129       -4.43196642196487       -2.64460452510992
C            3.05601046029303       -4.09293315584412        0.00611370092127
H            3.59856700460649       -3.71579446833410        0.87462421826123
H            2.02268540526070       -4.29812632194822        0.27865060050437
H            3.52274692687969       -5.01273588026321       -0.34117581289890
C            4.10617332616921        3.42035457630709        0.25220401260806
H            4.43124827110479        4.45766047089415        0.22220540237976
H            4.55259815734594        2.91540902746855        1.10963989821461
H            4.43707447467786        2.90363690302955       -0.65051700089447
C            2.06860581902254        3.96490679949518       -0.87213798728478
H            2.34388214899702        3.35916103225047       -1.74548318742400
H            0.98508653974005        4.01201916182565       -0.78917815296434
H            2.45877484905816        4.97308973832341       -0.99544665310202
C            2.19636578732621        4.07491612715716        1.54081192395310
H            1.11152735364968        4.15279184587972        1.56360732815719
H            2.53443685202630        3.53726951372865        2.42680722777552
H            2.61788812047678        5.07815359956010        1.54397533610413
N            3.09382947817219       -3.07748141331995       -1.05235159801838
N            2.63827766494804        3.35580278625121        0.33859166655718
O           -0.92120277189052        4.39959921895685        2.14122192827384
H           -1.44584009067540        4.87181626965573        2.79013165052375
H           -1.03406867097367        3.45665583888184        2.31181465146488
O            1.29822969182427       -0.69004386502742       -4.24816680526515
H            2.18127635694306       -0.57464670910522       -3.78534553192894
H            1.03720039253343        0.21352493626157       -4.43649336067399
O            3.10700177276955        1.88512334855189        3.69291427756551
H            3.39592568027072        1.79369570735185        4.60067283084091
H            3.88763284931671        1.62500072089802        3.13643047241097
O           -0.61871516306286       -4.40745577774878       -2.35632292141374
H           -0.61219427731892       -3.80768652483577       -3.12929388242756
H           -1.48874224626341       -4.31297540726580       -1.96622838674255
O            5.17529422567762        1.30639611336219        2.17576949561396
H            6.00882909871805        1.16009977406004        2.62122960447358
H            5.20912485317017        0.63271191866160        1.27814415794959
O            5.31742763983761       -0.23168483514310        0.25499967568661
H            6.26064091343276       -0.26639569055675        0.09916557212927
H            4.85604424963348        0.55704896168580       -1.09693988147992
O            4.64535111134965       -2.10790689204053        1.87755210573018
H            4.57483812611633       -1.67278205021303        2.72722556031049
H            4.94309248572728       -1.37216679541598        1.24315798404915
O           -0.51282690002975       -2.67477934123261       -4.48446914308522
H           -0.26728530279358       -3.09052192815059       -5.31203430482444
H            0.12260636346888       -1.93620493943373       -4.36621407995134
C            3.56006468351372        0.88518049586871       -2.60517067683865
O            2.76513803128279        1.76039339252487       -2.94632327764730
O            4.55219287111641        1.27013842499072       -1.74695826137303
O            3.51101964236910       -0.32777297964584       -2.92117288879037
