146
  -226.57723468
    C          -5.94002978           0.12698998           1.15828612
    C          -4.94765420          -0.80420800           0.45102807
    C          -4.92218511          -2.17628694           1.14407279
    C          -4.45298359          -3.34238284           0.24775053
    C          -3.59247798          -0.14055956           0.43236532
    C          -2.86349308           0.02450679           1.60485104
    C          -3.05627219           0.36204819          -0.74691823
    C          -1.62559550           0.63414222           1.58948445
    H          -3.24386972          -0.33995812           2.54533663
    C          -1.81804498           0.97934628          -0.76450440
    H          -3.60273293           0.25274370          -1.67191487
    C          -1.08467618           1.12192997           0.40636914
    H          -1.07661252           0.71630888           2.51099817
    H          -1.41357037           1.33017478          -1.70179996
    C          -3.19971964          -2.97047748          -0.50526507
    C          -2.01966021          -2.78396498           0.21158840
    C          -3.16709182          -2.78210878          -1.88001800
    C          -0.85595234          -2.40390336          -0.42444162
    H          -2.02400305          -2.93507998           1.27998977
    C          -1.99597737          -2.41783505          -2.52145594
    H          -4.06008835          -2.90899817          -2.47084577
    C          -0.82584947          -2.22543913          -1.80251817
    H           0.04550411          -2.22365450           0.13715378
    H          -2.00282188          -2.25425438          -3.58904670
    C           0.43065862          -1.76264281          -2.47948130
    H           0.17514426          -1.19094597          -3.37664508
    H           0.98677587          -1.12241329          -1.79369298
    C           0.30634791           1.68825550           0.37124312
    H           0.95677058           1.07073939           0.99199858
    H           0.66942769           1.64903034          -0.65758359
    C           2.54266346          -2.22030108          -3.51567207
    H           3.29165661          -2.97396935          -3.74758059
    H           2.25845025          -1.71382492          -4.43439200
    H           2.96506091          -1.49250918          -2.81823338
    C           0.72183246          -3.75833475          -3.83690800
    H          -0.13293915          -4.23798206          -3.36427259
    H           0.38758774          -3.19558043          -4.70682103
    H           1.42682075          -4.52357825          -4.15700615
    C           1.82165849          -3.59009621          -1.69913602
    H           2.19300670          -2.87596816          -0.96122025
    H           1.00074155          -4.14944222          -1.25921949
    H           2.61750341          -4.28180529          -1.96478840
    C           1.89117155           3.45829785           0.65570266
    H           2.11750651           4.37943430           1.18629294
    H           2.53566478           2.66335893           1.03041742
    H           2.11768799           3.59968263          -0.39970853
    C          -0.38235746           3.99130022           0.05325367
    H          -0.18286228           3.85433720          -1.00723624
    H          -1.43409577           3.77712280           0.25630175
    H          -0.17450173           5.02496345           0.32137851
    C           0.12807624           3.22244190           2.26516745
    H          -0.93002855           3.02390631           2.41742189
    H           0.71584519           2.52786591           2.86524183
    H           0.33745317           4.23571590           2.60130626
    N           1.37098781          -2.85033521          -2.88575164
    N           0.47374863           3.09428928           0.84195157
    C          -5.59114023          -3.82743467          -0.64832089
    H          -4.19015928          -4.17036347           0.91821769
    H          -4.27902766          -2.12126805           2.02111057
    H          -5.92910702          -2.41161695           1.49480527
    H          -5.28204856          -0.93366459          -0.58292956
    H          -5.98958334          -3.02185904          -1.26022424
    H          -6.40134902          -4.21233421          -0.03274429
    H          -5.25263308          -4.62966476          -1.30059176
    H          -5.65434386           0.26819224           2.19766832
    H          -6.94359711          -0.29109817           1.12863895
    H          -5.96272389           1.10008299           0.67104963
    C           2.78529804          -0.28047116          -0.07840268
    O           3.21832747           0.61424636           0.71130074
    O           2.94780613          -0.16000945          -1.33602767
    O           2.14180233          -1.28732981           0.37592077
    O           4.76785550           1.57849017          -2.07739774
    H           5.34881315           1.69218804          -1.30804243
    H           4.10807874           0.88998118          -1.77364668
    O           2.54531185          -0.49301408          -6.21752538
    H           3.04542882           0.16304127          -5.67761518
    H           2.66734724          -0.22995912          -7.12996348
    O          -2.09243768          -1.80817787           4.33547240
    H          -2.31249755          -2.17765564           5.19188623
    H          -1.59595474          -2.50748023           3.86290601
    O           4.89117474          -1.60140468           3.34342949
    H           4.44255062          -0.72833380           3.33804048
    H           4.70708366          -1.95165808           4.24298229
    O          -1.42781183           0.81918743           5.03394509
    H          -0.47203907           0.92036276           4.92975710
    H          -1.64267211          -0.08921504           4.76052628
    O           1.04088188          -4.80376024           1.08359070
    H           0.41084530          -4.21729447           1.53170400
    H           1.91341003          -4.41149601           1.23568785
    O           1.29133336           0.90387979           4.23496659
    H           2.23688415           1.02402748           3.97607862
    H           1.02192762           0.16039932           3.65636893
    O           3.70898470           0.82681896           3.23835115
    H           3.46667248           0.67176519           2.28304688
    H           4.30411797           1.60151608           3.21684450
    O          -3.26595394           3.34848939           1.13399207
    H          -3.74562172           2.58998827           0.79641280
    H          -3.16292029           3.18936038           2.08782755
    O           3.82800237          -2.40369089           5.67275971
    H           3.36816578          -1.64870273           6.07891585
    H           3.11658705          -2.90154242           5.23788997
    O           5.38177880           2.90732232           2.77118205
    H           6.23408362           2.87399859           3.20683693
    H           5.52874020           2.52987566           1.86821654
    O           3.33740866          -3.20098915           1.78066324
    H           2.93730709          -2.48833493           1.22947649
    H           4.03943779          -2.73408871           2.28145928
    O           3.57030730           1.37315120          -4.62186984
    H           4.27898537           1.31382805          -3.96750962
    H           2.75580954           1.44264602          -4.08759556
    O           2.21838001          -0.29991014           6.50648929
    H           2.59343250           0.40534389           7.03362317
    H           1.82235185           0.12621924           5.71854909
    O           0.79842572          -1.09039055           2.55629757
    H           1.36918707          -1.12332066           1.72250662
    H          -0.06247538          -1.43993873           2.31903062
    O          -2.75740720           2.77671774           3.79177210
    H          -3.22895536           3.23355334           4.48834098
    H          -2.29426359           2.02621337           4.23273486
    O           0.20504816          -6.41016399           3.18370924
    H           0.93834456          -6.47870309           3.79790921
    H           0.58147804          -6.09020512           2.34433740
    O           1.49977623           1.53700961          -2.78238520
    H           1.93322094           2.39036627          -2.58592555
    H           1.99898024           0.87323980          -2.24750176
    O           0.16036314           0.13576323          -4.89001109
    H           0.49122514           0.77581634          -4.24458680
    H           0.91234827          -0.06004812          -5.47241740
    O          -0.65998022          -3.77428642           3.11228750
    H          -0.80994082          -4.72265214           3.24445646
    H           0.22153670          -3.60588079           3.52683586
    O           5.67332433           1.51945688           0.52070366
    H           4.73835772           1.18344769           0.54464111
    H           6.20432451           0.78991985           0.89046576
    O           6.87727057          -0.63709077           1.74568635
    H           6.23445337          -0.99408914           2.39104874
    H           7.14359730          -1.37930735           1.20240369
    O           1.79149214          -3.17259225           3.95203456
    H           1.54132785          -2.24666314           3.77438159
    H           2.39392098          -3.37625431           3.19820321
    O           3.12698900           3.63194787          -2.25125433
    H           3.41407342           4.13178100          -3.01606496
    H           3.81755604           2.92139001          -2.12582235
    C          -1.52524431          -5.69651915          -0.37339906
    O          -2.08551777          -5.91534780           0.59570248
    O          -0.97930192          -5.49688045          -1.36153833
