71
	Energy:    -173.2516705
C         -3.60975        7.97863       -1.54824
C         -2.33244        7.13902       -1.67268
C         -2.58685        5.69054       -1.17307
C         -1.39369        4.79492       -0.74177
C         -1.15854        7.87177       -1.05513
C         -0.99569        8.02560        0.32768
C         -0.13948        8.31940       -1.90741
C          0.21624        8.49739        0.85062
H         -1.77710        7.69957        1.01002
C          1.06905        8.77052       -1.38933
H         -0.22923        8.21213       -2.98632
C          1.27867        8.82079       -0.00499
H          0.35163        8.51414        1.92925
H          1.89288        8.96672       -2.07785
C         -0.12127        4.88286       -1.56245
C          1.08383        5.15539       -0.89600
C         -0.09720        4.75604       -2.95560
C          2.25963        5.39314       -1.60502
H          1.10651        5.26620        0.18615
C          1.09190        4.97323       -3.66811
H         -1.01117        4.53432       -3.50098
C          2.27758        5.32370       -3.00090
H          3.15110        5.70837       -1.05928
H          1.06713        4.92267       -4.75411
C          3.53102        5.71730       -3.75196
H          3.24482        6.03102       -4.76508
H          3.98868        6.58315       -3.28830
C          2.68526        9.03425        0.50677
H          2.79759        8.55021        1.48618
H          3.35202        8.51909       -0.16518
C          5.71439        5.28130       -4.78885
H          6.54178        4.57062       -4.87921
H          5.29510        5.48785       -5.77860
H          6.05441        6.20575       -4.32608
C          4.09139        3.40439       -4.57608
H          3.38013        2.92156       -3.89999
H          3.60288        3.67636       -5.51659
H          4.92750        2.72595       -4.77292
C          5.26236        4.32098       -2.58586
H          5.67788        5.22122       -2.15190
H          4.51388        3.86506       -1.93452
H          6.06592        3.59765       -2.76111
C          4.71069       10.35056        0.92623
H          5.08049       11.33929        1.21649
H          4.86769        9.64082        1.74354
H          5.21324       10.03589        0.01334
C          3.04407       11.25191       -0.62596
H          3.50591       10.70619       -1.44826
H          1.97981       11.41793       -0.81424
H          3.53888       12.22084       -0.50112
C          2.51918       11.16414        1.80245
H          1.45100       11.24769        1.58306
H          2.67659       10.58209        2.71554
H          2.95133       12.16311        1.91704
N          4.62278        4.64471       -3.93246
N          3.19948       10.47416        0.66405
C         -1.84721        3.33165       -0.64501
H         -1.14856        5.10140        0.28473
H         -3.27592        5.72919       -0.31680
H         -3.15158        5.17616       -1.96411
H         -2.13698        7.04818       -2.75069
H         -2.12847        2.93094       -1.62535
H         -2.71366        3.23728        0.01846
H         -1.04866        2.69754       -0.24343
H         -3.90208        8.11717       -0.50140
H         -4.44310        7.49490       -2.06916
H         -3.47119        8.97244       -1.98877
C          5.41774        7.99584       -1.75244
O          4.48235        8.63262       -2.20750
O          5.39751        7.35777       -0.69574
O          6.50330        7.83914       -2.30828
