101
	Energy:    -125.6262484
C         -3.34329       -4.34030        1.25199
C         -3.83573       -3.17769        0.39751
H         -3.91381       -5.24482        1.01692
H         -2.28708       -4.55855        1.06900
H         -3.47465       -4.12653        2.31746
C         -3.16304       -1.82655        0.74717
H         -3.69053       -3.42390       -0.66140
H         -4.91878       -3.09077        0.55079
C         -3.89105       -0.67411       -0.00369
H         -3.31749       -1.65845        1.82186
H         -3.67486       -0.71244       -1.07830
H         -4.96948       -0.86624        0.08432
C         -3.64493        0.75975        0.55138
C         -4.70706        1.71845       -0.04523
H         -3.81909        0.71975        1.63541
H         -4.59633        1.79054       -1.13430
H         -5.70651        1.30385        0.13721
C         -4.67102        3.12052        0.55098
H         -5.49659        3.71751        0.15015
H         -4.77475        3.08637        1.63983
H         -3.74013        3.64072        0.30629
C         -2.24058        1.28778        0.30196
C         -1.41952        1.65666        1.37986
C         -1.73320        1.42364       -0.99455
C         -0.10728        2.09832        1.16823
H         -1.79090        1.57164        2.39939
C         -0.43057        1.86770       -1.19776
H         -2.32315        1.14781       -1.86502
C          0.40588        2.19335       -0.13078
H          0.51049        2.33094        2.03193
H          0.34454        1.65671       -4.58974
C         -1.66927       -1.87551        0.46608
C         -0.75139       -1.76554        1.51974
C         -1.17591       -1.99732       -0.83913
C          0.62316       -1.72133        1.26848
H         -1.10723       -1.67431        2.54393
C          0.19508       -1.95108       -1.09141
H         -1.85310       -2.07825       -1.68763
C          1.11129       -1.80341       -0.04328
H          1.29831       -1.58678        2.10950
H          0.53032       -1.97339       -2.12999
C          2.58217       -1.68824       -0.34673
H          2.73828       -1.29944       -1.35317
H          3.04022       -0.97215        0.34846
C          1.83972        2.55506       -0.40658
H          2.44782        2.24889        0.45572
H          2.22780        1.99714       -1.25505
C          4.86242       -2.61644       -0.56758
H          5.46969       -3.52598       -0.52951
H          4.91043       -2.16847       -1.56444
H          5.20505       -1.90458        0.19013
C          2.93196       -3.96864       -1.31951
H          1.91948       -4.29389       -1.06715
H          2.95494       -3.47584       -2.29569
H          3.60552       -4.83151       -1.31541
C          3.33657       -3.62091        1.10676
H          3.61057       -2.87194        1.85595
H          2.32168       -3.98934        1.27680
H          4.03852       -4.46004        1.14181
C          3.69017        4.14981       -0.78874
H          3.94475        5.19177       -1.00440
H          4.13811        3.84179        0.16125
H          4.03284        3.49795       -1.59861
C          1.57911        4.47139       -2.00532
H          2.01481        3.86207       -2.79843
H          0.49318        4.36678       -1.96411
H          1.83965        5.52332       -2.16062
C          1.67543        4.91950        0.44379
H          0.58236        4.91228        0.44535
H          2.06761        4.54034        1.39273
H          2.03839        5.93677        0.26929
N          3.41710       -2.98572       -0.26305
N          2.17710        4.03317       -0.66861
O          5.32510        3.78328        6.55174
H          6.05811        4.41543        6.49023
H          5.12150        3.77024        7.50086
O         -7.16028       -7.52970       12.59065
H         -7.42736       -7.89479       13.44800
H         -7.57737       -6.65531       12.57050
O          8.26383       10.10308       -2.42821
H          8.00367       10.78278       -1.78816
H          8.88238       10.56808       -3.01366
O         -6.01669        7.66209        5.62444
H         -6.68741        8.35934        5.69082
H         -6.27631        7.16739        4.83283
O          9.07017        0.13392        4.04450
H          8.98808        0.41430        4.96991
H         10.03033        0.07724        3.91432
O          2.98901        5.51415       -5.42748
H          2.23002        5.26846       -5.98248
H          3.74402        5.27462       -5.99065
O         -1.94669        9.84144       -0.65298
H         -2.48632       10.58298       -0.97147
H         -1.04230       10.11131       -0.87034
O         -3.95175       -9.76430       -3.71178
H         -4.85723       -9.74475       -3.36618
H         -3.98768      -10.43505       -4.41102
C          1.32486        0.63505       -3.67361
O          2.27430        0.40745       -2.88344
O          1.11164        1.89525       -4.02309
O          0.47281       -0.13287       -4.17047
